168
Energy =
H     0.7663331    7.0925653    0.5132194 
C     0.5751148    7.1327445   -0.5555999 
C     0.6162898    8.3505241   -1.2237962 
C     0.3728416    8.4049447   -2.5957134 
C     0.0871360    7.2417918   -3.3054928 
C     0.0440265    6.0168266   -2.6469980 
C     0.2884465    5.9655633   -1.2723037 
P     0.2122783    4.3738953   -0.4603299 
O     0.0729169    3.1644023   -1.3113336 
O    -1.0161941    4.5778572    0.5922250 
C    -1.5901595    3.4401049    1.1772872 
C    -2.7624620    2.9577804    0.6208647 
C    -3.3479849    1.8417951    1.1943567 
C    -2.8000538    1.1978039    2.3040255 
C    -1.6163812    1.7213513    2.8286815 
C    -0.9924440    2.8482958    2.2905655 
C     0.3032271    3.4076181    2.8573421 
C     1.4919630    2.7190424    2.2056178 
C     2.0700286    1.5693703    2.7464513 
C     3.1926335    0.9562154    2.1878691 
C     3.7187747    1.5189826    1.0241643 
C     3.1644751    2.6448710    0.4338428 
C     2.0574087    3.2259571    1.0333025 
O     1.5587080    4.4000749    0.4554206 
H     3.5933816    3.0685749   -0.4684740 
O     4.8811213    0.9898203    0.4476980 
P     4.8301204   -0.3012895   -0.5434931 
O     3.7073728   -0.2841898   -1.5160428 
O     4.8386226   -1.5977967    0.4415601 
C     3.6454014   -2.0820498    0.9943714 
C     3.0461099   -3.1680850    0.3783430 
C     1.8929271   -3.6894764    0.9440331 
C     1.3272696   -3.1637835    2.1063942 
C     1.9617892   -2.0626514    2.6839068 
C     3.1290828   -1.5076628    2.1571574 
C     3.8032880   -0.3008088    2.7858225 
C     3.7851051   -0.3314063    4.3203541 
H     4.1925549   -1.3023351    4.6345204 
C     4.6158584    0.7906341    4.9414014 
C     4.6095315    0.7301770    6.4666419 
H     5.0101302   -0.2256331    6.8251315 
H     5.2168739    1.5320819    6.9006289 
H     3.5908578    0.8320794    6.8586760 
H     5.6484277    0.7284923    4.5692657 
H     4.2238514    1.7628388    4.6134877 
H     2.7601828   -0.2852185    4.7090779 
H     4.8555695   -0.3231952    2.4808539 
H     1.5337886   -1.6251494    3.5839637 
C     0.0543877   -3.7598687    2.6890399 
C    -1.1527546   -3.0459098    2.1029362 
C    -1.7222797   -1.9252398    2.7120710 
C    -2.8421466   -1.2724986    2.1921979 
C    -3.3725618   -1.7646471    0.9978230 
C    -2.8309402   -2.8617354    0.3462750 
C    -1.7296817   -3.4864522    0.9106583 
O    -1.2573095   -4.6443316    0.2805131 
P     0.0552683   -4.6238806   -0.6795934 
O     0.1579825   -3.4302843   -1.5588292 
O     1.3215926   -4.8112770    0.3296020 
C    -0.0389615   -6.2361142   -1.4497741 
C     0.2409002   -6.3384266   -2.8146649 
C     0.1930991   -7.5844387   -3.4323842 
C    -0.1331501   -8.7177192   -2.6923511 
C    -0.4122530   -8.6124237   -1.3303495 
C    -0.3655233   -7.3735211   -0.7026698 
H    -0.5832456   -7.2937946    0.3587169 
H    -0.6684566   -9.4978182   -0.7558566 
H    -0.1714577   -9.6889359   -3.1779290 
H     0.4096507   -7.6686261   -4.4932672 
H     0.4917870   -5.4499681   -3.3872256 
H    -3.2695405   -3.2338457   -0.5739068 
O    -4.5328347   -1.1998873    0.4517451 
P    -4.4697784    0.1544757   -0.4478275 
O    -3.3016943    0.2351245   -1.3613886 
O    -4.5447523    1.3759991    0.6295239 
C    -6.0943381    0.1883851   -1.1943060 
C    -7.2474455   -0.1066051   -0.4593519 
C    -8.4864914   -0.0608246   -1.0874756 
C    -8.5757081    0.2784614   -2.4369286 
C    -7.4261012    0.5733986   -3.1650667 
C    -6.1805492    0.5287572   -2.5473062 
H    -5.2783464    0.7528739   -3.1098718 
H    -7.4968603    0.8369221   -4.2163225 
H    -9.5470618    0.3117254   -2.9225529 
H    -9.3851139   -0.2925902   -0.5233771 
H    -7.1800333   -0.3727856    0.5918762 
C    -3.4521971   -0.0553752    2.8685782 
C    -3.4107268   -0.1282325    4.4011434 
H    -2.3778980   -0.1298369    4.7705658 
C    -4.1845228    1.0110799    5.0627662 
C    -4.1479420    0.9199495    6.5859819 
H    -4.5790063   -0.0259748    6.9353136 
H    -3.1175564    0.9734822    6.9564531 
H    -4.7126641    1.7369188    7.0484752 
H    -3.7615642    1.9739318    4.7456158 
H    -5.2262524    0.9971565    4.7119123 
H    -3.8500136   -1.0897593    4.7007756 
H    -4.5090460   -0.0249059    2.5792300 
H    -1.2789493   -1.5479732    3.6312497 
C     0.0425010   -3.7950689    4.2236859 
H    -0.9352369   -4.1858985    4.5375145 
C     1.1478023   -4.6753319    4.8049007 
C     1.1023734   -4.7093739    6.3303942 
H     1.2334005   -3.7038016    6.7475437 
H     0.1396653   -5.0944181    6.6875368 
H     1.8919543   -5.3485622    6.7405079 
H     1.0524813   -5.6946512    4.4044794 
H     2.1270853   -4.3009558    4.4775881 
H     0.1226171   -2.7859009    4.6465441 
H     0.0050107   -4.8006308    2.3475743 
H     3.4650409   -3.5976825   -0.5256836 
C     6.4948800   -0.3274973   -1.1968274 
C     7.6057034   -0.3375421   -0.3458072 
C     8.8831928   -0.3663807   -0.8916360 
C     9.0529703   -0.3851032   -2.2756018 
C     7.9457577   -0.3744965   -3.1194128 
C     6.6617594   -0.3457920   -2.5836190 
H     5.7935419   -0.3385186   -3.2363922 
H     8.0795428   -0.3892193   -4.1970812 
H    10.0543595   -0.4084407   -2.6964381 
H     9.7487942   -0.3748811   -0.2358079 
H     7.4764340   -0.3237284    0.7328879 
H     1.6387369    1.1414383    3.6492611 
C     0.3608691    3.3704795    4.3917607 
H     1.3490494    3.7423495    4.6961564 
C    -0.7245405    4.2263209    5.0427090 
C    -0.6455450    4.1848501    6.5664966 
H    -0.7756462    3.1607563    6.9361700 
H    -1.4219166    4.8077926    7.0242038 
H     0.3271952    4.5460448    6.9213877 
H    -0.6327662    5.2635998    4.6903367 
H    -1.7130137    3.8728673    4.7198562 
H     0.2863244    2.3419769    4.7661668 
H     0.3489585    4.4629037    2.5635222 
H    -1.1628990    1.2320294    3.6892809 
H    -3.2013263    3.4318080   -0.2507657 
H    -0.1759796    5.1047949   -3.1949434 
H    -0.1012546    7.2857977   -4.3741528 
H     0.4072711    9.3597758   -3.1130187 
H     0.8404374    9.2595890   -0.6734641 
C    -0.7481997   -0.6037190   -2.3604888 
N     0.3318531    0.0148539   -1.8424639 
C     1.0789922    0.8607530   -2.5787355 
C     0.7315335    1.1357523   -3.8831807 
C    -0.4091777    0.5498406   -4.4244898 
C    -1.1467234   -0.3466516   -3.6533747 
H    -2.0353100   -0.8337151   -4.0343582 
C    -0.8156871    0.9379642   -5.8126517 
O    -0.1019511    1.5757896   -6.5590315 
O    -2.0492427    0.5212528   -6.1002451 
C    -2.5730448    0.9035969   -7.4098129 
C    -3.9982704    0.4057745   -7.4934278 
C    -4.6261193    0.7997437   -8.8288184 
H    -5.6558349    0.4354806   -8.8940544 
H    -4.0665460    0.3770066   -9.6709574 
H    -4.6471333    1.8887119   -8.9505453 
H    -4.0089229   -0.6848059   -7.3766243 
H    -4.5772322    0.8310621   -6.6641043 
H    -1.9360144    0.4568964   -8.1819223 
H    -2.5168183    1.9949079   -7.4962888 
H     1.3299078    1.8298101   -4.4616976 
H     1.9358328    1.2997172   -2.0877027 
C     0.6693537   -0.2325061   -0.4264096 
H    -0.2218330   -0.0484249    0.1791621 
H     1.4713143    0.4405911   -0.1305206 
H     0.9850356   -1.2733588   -0.3206115 
H    -1.2783147   -1.2772928   -1.7010501 
Cl    0.2025072   -0.2344948    5.7127010 
