12
Energy =
H     0.0000004   -0.0000000   -2.5471692 
C    -0.0000000    0.0000002   -1.4612468 
C     1.2049732   -0.0000002   -0.7634910 
H     2.1494006   -0.0000001   -1.3001477 
C     1.2154954    0.0000002    0.6300449 
H     2.1533850    0.0000001    1.1749050 
C    -0.0000003   -0.0000002    1.3017658 
C    -1.2154962    0.0000002    0.6300444 
H    -2.1533858    0.0000000    1.1749044 
C    -1.2049736   -0.0000002   -0.7634917 
H    -2.1494008    0.0000000   -1.3001487 
Br    0.0000022   -0.0000001    3.2240306 
