84
Energy =
C    -2.7159499    3.4995104   -0.7107987 
C    -1.3518312    3.6645945   -0.6428827 
C    -0.6880554    3.5171510    0.5804785 
C    -1.4655967    3.2753017    1.7190470 
C    -2.8277448    3.1310192    1.6040160 
N    -3.4303234    3.2298749    0.4009879 
H    -3.2671200    3.5739607   -1.6416533 
H    -0.8281898    3.8958677   -1.5621190 
H    -1.0302058    3.1409976    2.7014511 
H    -3.4645326    2.9103409    2.4532301 
C     2.5499079   -3.1825765    2.3890439 
C     1.2077293   -3.3232295    2.1259887 
C     0.7775262   -3.5930056    0.8218440 
C     1.7507171   -3.7924691   -0.1628113 
C     3.0824060   -3.6486183    0.1496026 
N     3.4609475   -3.3285824    1.4045625 
H     2.9298624   -2.9243323    3.3716329 
H     0.5107086   -3.1567159    2.9383931 
H     1.4917816   -4.0532754   -1.1820309 
H     3.8704802   -3.7707260   -0.5845387 
C     2.8171315    3.4845999    1.9419197 
H     3.3725655    3.5559290    2.8703086 
N     3.5257703    3.2054652    0.8288115 
C     2.9180242    3.1096267   -0.3716267 
H     3.5494887    2.8849958   -1.2236050 
C     1.5568494    3.2634893   -0.4817185 
H     1.1170314    3.1275713   -1.4620219 
C     0.7846416    3.5128726    0.6586622 
C     1.4534643    3.6576892    1.8792535 
H     0.9335037    3.8916350    2.8000399 
C    -0.6567079   -3.5707757    0.4832760 
C    -1.0711899   -3.2396452   -0.8116727 
H    -0.3646167   -3.0380325   -1.6075259 
C    -2.4091294   -3.0870635   -1.0862307 
N    -3.3325997   -3.2731753   -0.1202920 
C    -2.9689574   -3.6276729    1.1294178 
H    -3.7655552   -3.7667610    1.8512068 
H    -2.7766384   -2.7986426   -2.0649166 
C    -1.6410815   -3.7912495    1.4518707 
H    -1.3949589   -4.0869863    2.4647053 
H    -4.7446227   -1.0005527   -2.3479937 
C    -4.8343784   -0.5725873   -1.3529050 
C    -4.8652627    0.8084278   -1.1907507 
H    -4.8018763    1.4578584   -2.0602545 
C    -4.9642869    1.3617055    0.0861541 
C    -5.0572567    0.5221840    1.1978331 
H    -5.1472464    0.9495598    2.1931184 
C    -5.0284139   -0.8568760    1.0354878 
H    -5.0957809   -1.5056815    1.9052265 
C    -4.9043969   -1.4109987   -0.2400065 
C     5.0093218   -1.4460400    1.4907513 
C     5.0056730   -0.6011557    2.6002922 
H     4.9766138   -1.0234330    3.6012548 
C     5.0283932    0.7796552    2.4284862 
H     5.0182993    1.4340396    3.2963332 
C     5.0522763    1.3262377    1.1454069 
C     5.0770428    0.4794251    0.0354597 
H     5.1128525    0.8993435   -0.9664249 
C     5.0568496   -0.8981348    0.2069529 
H     5.0753765   -1.5497261   -0.6629938 
C     4.9652923    2.8186025    0.9501580 
H     5.3785381    3.3658250    1.7994346 
H     5.4633441    3.1372134    0.0320508 
C    -4.8725244    2.8541444    0.2748145 
H    -5.2765931    3.3999219   -0.5799683 
H    -5.3739913    3.1806313    1.1882045 
C    -4.7533617   -2.9025112   -0.4015699 
H    -4.9782025   -3.2227823   -1.4209258 
H    -5.3782124   -3.4564355    0.3017810 
C     4.8793689   -2.9388193    1.6676395 
H     5.5028265   -3.4902460    0.9606878 
H     5.1215259   -3.2471781    2.6863569 
C    -0.2910121    0.0840813   -0.5172136 
C    -1.3570457    0.0334855    0.3735353 
C    -1.0883520   -0.0620882    1.7377529 
H    -1.9183661   -0.0956613    2.4392164 
C     0.2270554   -0.0902780    2.1962355 
H     0.4314314   -0.1538311    3.2613348 
C     1.2812656   -0.0455473    1.2859681 
H     2.3105183   -0.0704560    1.6367737 
H    -2.3808582    0.0747705    0.0145096 
C     1.0304580    0.0312001   -0.0829346 
H     1.8545193    0.0709237   -0.7892518 
I    -0.7045601    0.2709563   -2.5880670 
