84
Energy =
C    -2.9859500    3.6133417   -0.3640050 
C    -1.6272292    3.7767583   -0.5090083 
C    -0.7781493    3.5715239    0.5832740 
C    -1.3619728    3.2740477    1.8200206 
C    -2.7242646    3.1250940    1.9172055 
N    -3.5111211    3.2762008    0.8311025 
H    -3.6801163    3.7343193   -1.1875113 
H    -1.2539722    4.0562016   -1.4866373 
H    -0.7705229    3.0998896    2.7103084 
H    -3.2194102    2.8565294    2.8439810 
C     2.9126839   -3.5615716    1.3460733 
C     1.5549759   -3.7198488    1.5118326 
C     0.6965420   -3.5702625    0.4181374 
C     1.2702008   -3.3246844   -0.8347727 
C     2.6300051   -3.1718839   -0.9514465 
N     3.4274986   -3.2788217    0.1323754 
H     3.6155182   -3.6464834    2.1669286 
H     1.1901807   -3.9523479    2.5050684 
H     0.6694103   -3.2029527   -1.7271928 
H     3.1160156   -2.9452575   -1.8940337 
C     2.6218145    3.1717593   -0.9441191 
H     3.1086846    2.9461025   -1.8864820 
N     3.4185718    3.2793985    0.1401611 
C     2.9028168    3.5610006    1.3536907 
H     3.6050572    3.6464033    2.1749965 
C     1.5448748    3.7180166    1.5186152 
H     1.1791493    3.9501563    2.5115792 
C     0.6872796    3.5684563    0.4242809 
C     1.2617678    3.3232784   -0.8282777 
H     0.6614312    3.2012670   -1.7209596 
C    -0.7688375   -3.5724370    0.5779840 
C    -1.6182657   -3.7735119   -0.5147258 
H    -1.2458880   -4.0525143   -1.4928664 
C    -2.9764690   -3.6070907   -0.3694104 
N    -3.5020672   -3.2750975    0.8268398 
C    -2.7147179   -3.1261611    1.9127876 
H    -3.2094838   -2.8592842    2.8402666 
H    -3.6708331   -3.7276681   -1.1928562 
C    -1.3524603   -3.2763725    1.8151957 
H    -0.7608468   -3.1045207    2.7058311 
H    -4.7250726   -1.2338551   -1.2097791 
C    -4.8778483   -0.6934169   -0.2786843 
C    -4.8803855    0.6941487   -0.2779124 
H    -4.7296426    1.2363233   -1.2083332 
C    -5.0624992    1.3956869    0.9169560 
C    -5.2643587    0.6943572    2.1037087 
H    -5.4117357    1.2368363    3.0337369 
C    -5.2617956   -0.6976257    2.1029306 
H    -5.4070146   -1.2416500    3.0323848 
C    -5.0573768   -1.3969337    0.9154382 
C     4.9745026   -1.3945192    0.0123544 
C     4.8573964   -0.6936790    1.2151887 
H     4.7592695   -1.2363709    2.1522324 
C     4.8552968    0.6944637    1.2171418 
H     4.7555863    1.2342503    2.1556934 
C     4.9704363    1.3989885    0.0162744 
C     5.1095355    0.7000997   -1.1819306 
H     5.2066488    1.2445590   -2.1175770 
C     5.1115524   -0.6918995   -1.1838962 
H     5.2100995   -1.2334161   -2.1210986 
C     4.8581699    2.9034640    0.0109602 
H     5.3875904    3.3576920    0.8505843 
H     5.2243751    3.3300460   -0.9251048 
C    -4.9520375    2.8994212    0.9327429 
H    -5.4665901    3.3589217    0.0868005 
H    -5.3363178    3.3197096    1.8644773 
C    -4.9434199   -2.9004165    0.9294808 
H    -5.4575218   -3.3594578    0.0829894 
H    -5.3268504   -3.3226828    1.8606570 
C     4.8661165   -2.8992906    0.0027709 
H     5.2322465   -3.3221821   -0.9349760 
H     5.3975407   -3.3547351    0.8404763 
C     0.2415561   -0.0022018   -0.8130365 
C    -1.0776250   -0.0057824   -0.3734410 
C    -1.3161426   -0.0078857    0.9991810 
H    -2.3417872   -0.0076943    1.3603921 
C    -0.2540060   -0.0042609    1.9013651 
H    -0.4482354   -0.0028237    2.9699792 
C     1.0581263   -0.0014867    1.4332121 
H     1.8918678    0.0007685    2.1304024 
H    -1.9047066   -0.0060116   -1.0766344 
C     1.3180387   -0.0004680    0.0638840 
H     2.3397729    0.0009674   -0.3049339 
Br    0.5972481   -0.0012959   -2.7023424 
