126
Energy =
O     4.2025969   -0.0243981   -3.0430216 
O     2.6003379   -3.3082632   -3.0497053 
O    -0.9556755   -4.0928675   -3.0460866 
O    -3.7927225   -1.8045353   -3.0456098 
O    -3.7742565    1.8497363   -3.0453859 
O    -0.9128988    4.1045990   -3.0467168 
O     2.6356872    3.2774411   -3.0506454 
O     4.2009793   -0.0239644    3.0431806 
O     2.5988347   -3.3083698    3.0495416 
O    -0.9566646   -4.0946963    3.0460420 
O    -3.7916792   -1.8064066    3.0456995 
O    -3.7717600    1.8490949    3.0455250 
O    -0.9110031    4.1066927    3.0467272 
O     2.6350025    3.2798862    3.0503542 
N     5.1328247    1.0839077   -1.2268288 
N     5.1198938   -1.1426467   -1.2262625 
N     4.0388993   -3.3283788   -1.2261249 
N     2.2972887   -4.7158834   -1.2275135 
N    -0.0839016   -5.2440146   -1.2268271 
N    -2.2511705   -4.7334201   -1.2278482 
N    -4.1505005   -3.2045132   -1.2277494 
N    -5.0983937   -1.1897680   -1.2260349 
N    -5.0858111    1.2483096   -1.2256237 
N    -4.1172014    3.2531870   -1.2273766 
N    -2.1999598    4.7596967   -1.2276852 
N    -0.0265473    5.2435369   -1.2267403 
N     2.3482299    4.6877562   -1.2279899 
N     4.0737260    3.2802577   -1.2264254 
N     5.1318687    1.0840850    1.2271599 
N     5.1199932   -1.1424405    1.2274458 
N     4.0375615   -3.3274311    1.2260412 
N     2.2972278   -4.7165857    1.2276067 
N    -0.0841429   -5.2441530    1.2260535 
N    -2.2516953   -4.7346396    1.2272656 
N    -4.1513129   -3.2058524    1.2278244 
N    -5.0966270   -1.1898784    1.2261687 
N    -5.0848539    1.2480953    1.2267306 
N    -4.1164415    3.2530250    1.2282228 
N    -2.1988300    4.7588694    1.2271509 
N    -0.0262093    5.2462514    1.2264152 
N     2.3485728    4.6895749    1.2270598 
N     4.0725890    3.2802282    1.2257561 
C     5.8333532    0.7441676    0.0004509 
C     5.8246585   -0.8102738    0.0005614 
C     2.9803714    3.7002310   -1.9470132 
C     1.2887682    5.5118697   -1.7731084 
C     4.2113590   -4.0879654    0.0003014 
C     2.9971344   -5.0557869   -0.0000071 
C    -1.0328359    4.6417773   -1.9451708 
C    -3.5033998    4.4454675   -1.7765517 
C    -0.5742157   -5.8504183   -0.0004902 
C    -2.0851728   -5.4939993   -0.0006167 
C    -4.2694855    2.0896889   -1.9439216 
C    -5.6488943    0.0322018   -1.7761450 
C    -4.9293549   -3.2003999   -0.0001827 
C    -5.5899296   -1.7942305    0.0003469 
C    -4.2906875   -2.0394270   -1.9442769 
C    -5.5712473    1.8577558    0.0007987 
C    -4.8952260    3.2566808    0.0006738 
C     5.1058067    2.4241132   -1.7757941 
C     4.7550506   -0.0273873   -1.9427345 
C    -2.0243154    5.5173427   -0.0001481 
C    -0.5095505    5.8566120   -0.0007113 
C     5.0795311   -2.4824974   -1.7752940 
C     2.9404892   -3.7353694   -1.9463230 
C     3.0522263    5.0198728   -0.0007807 
C     4.2549734    4.0382382   -0.0002796 
C     1.2282996   -5.5274581   -1.7728650 
C    -1.0824786   -4.6293502   -1.9449524 
C     5.1045064    2.4243614    1.7759083 
C     4.7541252   -0.0271219    1.9432362 
C    -3.5503824   -4.4033659   -1.7775477 
C     2.9798577    3.7017605    1.9464280 
C     1.2895280    5.5146219    1.7716529 
C     5.0783947   -2.4823299    1.7761605 
C     2.9394677   -3.7353728    1.9462710 
C    -1.0316052    4.6431739    1.9449122 
C    -3.5019749    4.4450763    1.7770564 
C     1.2278756   -5.5280519    1.7723709 
C    -1.0831102   -4.6304807    1.9445307 
C    -4.2679725    2.0893140    1.9445541 
C    -5.6471610    0.0316700    1.7772562 
C    -3.5511229   -4.4050495    1.7767831 
C    -4.2899888   -2.0406316    1.9443806 
H     6.8381162    1.1858776    0.0008053 
H    -5.4682314    0.0305845    2.8557071 
H    -3.4417691   -4.2690924    2.8560223 
H    -4.2296713   -5.2474918    1.5874166 
H    -6.7298419    0.0370044    1.5922896 
H    -4.1704985    5.2955388    1.5877987 
H     1.4613434   -6.5834158    1.5764816 
H     1.1914245   -5.3660779    2.8529055 
H    -3.3939916    4.3077748    2.8562545 
H     1.5358095    6.5668674    1.5745703 
H     6.0482958   -2.9628432    1.5885308 
H     4.9206065   -2.4045601    2.8550049 
H     1.2517911    5.3541742    2.8523665 
H    -3.4406719   -4.2665384   -2.8566420 
H     4.9463311    2.3483433    2.8548050 
H     6.0793630    2.8945176    1.5877463 
H    -4.2290616   -5.2459221   -1.5890809 
H     5.2351070    4.5326604    0.0001766 
H     1.4618928   -6.5828465   -1.5772451 
H     3.3401662    6.0791831   -0.0015886 
H     1.1921129   -5.3651464   -2.8533585 
H    -0.2921837    6.9324445   -0.0019342 
H     6.0495944   -2.9624489   -1.5870873 
H    -2.6791687    6.3983923    0.0004495 
H     4.9224303   -2.4046371   -2.8542333 
H    -5.6030760    4.0954397    0.0009428 
H     6.0805900    2.8942256   -1.5872018 
H    -6.6681951    1.8919834    0.0012301 
H     4.9482010    2.3479068   -2.8547622 
H    -6.6871980   -1.8165492    0.0011365 
H    -5.4708071    0.0314725   -2.8547346 
H    -5.6460826   -4.0315873   -0.0008522 
H    -6.7314197    0.0377595   -1.5903384 
H    -2.7502185   -6.3674010   -0.0012025 
H    -4.1719621    5.2957568   -1.5866990 
H    -0.3691085   -6.9286480   -0.0005347 
H    -3.3962145    4.3082966   -2.8558450 
H     3.2726902   -6.1183818   -0.0002988 
H     1.2505420    5.3500949   -2.8536065 
H     5.1856302   -4.5937599    0.0010400 
H     1.5347846    6.5644508   -1.5774078 
H     6.8244053   -1.2632629    0.0005544 
