266
Energy =
O     4.6433478   -0.0292944    1.3689949 
H     4.6899320    0.4858715    0.5349730 
O     4.5395633    0.9396413   -1.2180769 
H     4.6186054    0.1293035   -1.7641573 
O     4.8300056   -1.6324075   -2.2353195 
H     4.7765637   -2.2041466   -1.4429261 
O     4.7168665   -2.6212312    0.3871005 
H     4.7672558   -1.8055176    0.9285567 
O    -2.9494657   -2.7926832    3.5693070 
O    -3.3123114   -3.9090374    1.5112089 
O    -3.6810221   -2.6021378   -3.0500981 
O    -3.5256717   -0.5562472   -4.2328956 
O    -2.6968406    3.9599976   -2.9746069 
O    -2.2788245    5.0768893   -0.9275518 
O    -1.9714720    3.7735579    3.6384901 
O    -2.1376321    1.7284733    4.8210701 
C    -7.3289404   -0.5636889   -2.3612613 
C    -6.9604767   -1.9803305    2.5163949 
C    -6.4502030    4.2951322   -1.0405218 
C    -6.1080462    2.8764905    3.8501394 
C    -2.5173484   -0.5205908    4.1353621 
C     0.6520992   -5.1000059   -2.5763098 
C    -0.1543473   -5.3841254   -1.5750330 
C    -1.2396276   -0.8877932    4.6069574 
C    -3.4645742    2.8261020   -2.8262738 
C    -5.6144622   -1.5641181   -0.1186961 
H    -6.4496440   -0.9193675    0.1328976 
C    -2.3038052   -3.9530274   -1.0692962 
C    -3.8846203    0.5311266   -3.4657850 
C    -0.1285326   -1.2166504    4.9718372 
C    -1.3013464   -4.5853244   -1.3355536 
C     1.7910753   -2.6005308    4.9575253 
C    -4.1067911   -2.4432484   -1.7507041 
C    -3.4433129   -3.1835863   -0.7546351 
C    -2.8196438   -1.6028280   -3.5761443 
H    -2.2364024   -2.1024158   -4.3525722 
H    -2.1786207   -1.1924844   -2.7852247 
C     1.7973632    5.4050291    1.4048300 
C    -4.0216953    3.3278992    2.4492290 
C    -4.6036352    2.6607654    3.6867845 
H    -4.1060037    3.1173002    4.5501348 
C    -0.8462327    1.6204769   -4.9263903 
C    -2.8662156    4.4570551    0.1542488 
C     0.3700951    1.4891375   -5.6429493 
C    -5.4561514   -2.1949854    2.3494640 
H    -5.2018724   -3.1486320    2.8259544 
C    -2.9568883    0.8158838    4.1917668 
C    -2.1043506    4.3477008    1.3325854 
C    -5.8273602   -0.7832055   -2.5440243 
H    -5.6827747   -1.3322319   -3.4813425 
C    -3.3663608   -1.4809966    3.5554895 
C    -5.0303797    0.5061712   -2.6721756 
C    -2.7077193    3.7899414    2.4751096 
C    -4.9481278    4.0703688   -1.2141635 
H    -4.5452168    4.9273617   -1.7660762 
C    -4.1956716    1.1944105    3.6752685 
C    -5.0100349   -2.3032353    0.8991036 
C     2.4038572    3.0234391   -4.9899216 
C     1.1674902   -1.5473291    5.4442168 
C    -1.8911047    1.6690573   -4.3091278 
C    -5.3633259    1.6608004   -1.9625101 
H    -6.2458727    1.6440122   -1.3316576 
C     0.0832591   -6.5798339   -0.6265247 
C     0.4269314    5.0380607    1.3951449 
C     1.4461874   -4.8671393   -3.5971000 
C    -4.7300842    3.4373330    1.2523523 
H    -5.7492119    3.0674385    1.2167629 
C    -4.6080131    2.8316977   -2.0299244 
C     3.2304419   -3.6433750    3.3712818 
C    -3.9217774   -3.1103171    0.5678682 
C     3.3077248    2.6292134   -3.9639928 
C     5.2892258    0.6942127    2.4307623 
C     1.3962249    2.2442876   -5.3117131 
C    -3.0802408    1.6830978   -3.5513952 
C    -0.7514107    4.7447177    1.3618784 
C    -4.1838127    4.0047884    0.1003250 
C     4.7268610   -2.4139908   -3.4381723 
C    -5.1932171   -1.6252046   -1.4469628 
C     4.8113425   -3.7936000    1.2112317 
C    -2.3646867   -3.2903070    2.3739702 
H    -1.8323343   -2.4886710    1.8451928 
H    -1.6887204   -4.0870494    2.6911875 
C     2.5643135   -3.9957797   -3.4630913 
C     2.6046402    4.8086637    2.2582567 
C     3.5352227   -3.2720068   -3.4150971 
C    -4.9929573    0.2078906    3.0935520 
H    -5.9512056    0.4926048    2.6721106 
C     2.3876695   -3.6862935    4.5186972 
C     3.9362327   -3.6790899    2.3861901 
C     1.3334635   -7.3566776   -1.0380240 
H     1.2247113   -7.7860192   -2.0398159 
H     1.5006112   -8.1790702   -0.3337639 
H     2.2234113   -6.7185025   -1.0356375 
C    -1.7543879    4.2379244   -1.9490794 
H    -0.9630478    4.8165809   -2.4306786 
H    -1.3723548    3.3034193   -1.5159226 
C     1.7763951   -0.6398473    6.5344996 
C     1.8675355    0.7890395    5.9818606 
H     0.8734469    1.1631995    5.7152128 
H     2.5001850    0.8320826    5.0881579 
H     2.2914190    1.4547246    6.7424723 
C     2.2552273    6.4938282    0.4130809 
C    -1.3330921    2.5537305    3.9884194 
H    -0.4740482    2.8417737    4.5977070 
H    -1.0294157    2.0056228    3.0857919 
C    -4.6083683   -1.1315639    3.0306304 
C     6.2628923   -3.9978723    1.6620290 
H     6.9044593   -4.0946832    0.7797424 
H     6.3577316   -4.9007410    2.2741769 
H     6.6037967   -3.1419416    2.2533250 
C    -1.1429749   -7.5029922   -0.6874425 
H    -2.0499231   -6.9789902   -0.3687924 
H    -0.9934879   -8.3612543   -0.0221049 
H    -1.3038101   -7.8806976   -1.7033394 
C     1.2663912   -4.9419406    6.4060452 
H     1.6549650   -4.2490157    7.1600303 
H     1.1479390   -5.9237643    6.8775275 
H     0.2756598   -4.5896196    6.0990730 
C     4.0828866    2.3532316   -3.0746167 
C     4.0141044    3.0104274    2.8819170 
C     3.4527669    4.8391776    4.6057923 
C     1.2193343   -5.5094004   -4.9869727 
C     0.4181646    0.4638605   -6.7956364 
C     4.5881650    1.9644864    2.6652997 
C     4.0499867    4.3784610   -6.2980428 
H     4.1326222    3.5974611   -7.0620871 
H     4.8224870    4.2000206   -5.5425962 
H     4.2543085    5.3450417   -6.7729842 
C     6.7578393    0.9557134    2.0776967 
H     7.2605347    0.0003843    1.8926730 
H     7.2659500    1.4755844    2.8960718 
H     6.8350352    1.5737413    1.1780330 
C     0.8452059   -0.6585368    7.7561179 
H    -0.1532557   -0.2903621    7.4986515 
H     1.2531182   -0.0156468    8.5448164 
H     0.7435696   -1.6727724    8.1580313 
C     3.5912890   -5.5436490    5.6872465 
H     4.2891132   -5.6379338    4.8486173 
H     3.4978661   -6.5259447    6.1648505 
H     4.0237109   -4.8486427    6.4156443 
C     2.0961963    4.6345529    5.2970733 
H     2.1278229    5.0244814    6.3215834 
H     1.8421707    3.5704513    5.3450128 
H     1.2995059    5.1540369    4.7531246 
C     3.7618090    6.3371974    4.5053761 
H     4.7326680    6.5086384    4.0274463 
H     3.7912615    6.7811448    5.5072529 
H     2.9942191    6.8603836    3.9256284 
C     0.2483625   -6.0419300    0.8004557 
H     1.1132455   -5.3737806    0.8769882 
H     0.3915883   -6.8761477    1.4962169 
H    -0.6421477   -5.4859787    1.1112627 
C     2.4777214   -6.3021579   -5.3671010 
H     3.3549447   -5.6497472   -5.4297358 
H     2.3366069   -6.7791576   -6.3438953 
H     2.6860543   -7.0857959   -4.6300386 
C     3.3483953    4.2309380    3.1764482 
C     3.1634830   -1.1368041    6.9384374 
H     3.5907738   -0.4637661    7.6899457 
H     3.8449797   -1.1695557    6.0825013 
H     3.1155701   -2.1416072    7.3720405 
C     1.5065245    7.7935180    0.7460110 
H     1.7322169    8.1268489    1.7651766 
H     0.4230723    7.6594648    0.6609214 
H     1.8082323    8.5861428    0.0515316 
C     1.8955551    6.0434063   -1.0095090 
H     2.3994933    5.1061727   -1.2713135 
H     2.1993560    6.8114883   -1.7298341 
H     0.8154738    5.8908053   -1.1087874 
C     4.3392474   -4.9543698    0.3336004 
H     5.0031673   -5.0511128   -0.5320401 
H     3.3239818   -4.7580867   -0.0210399 
H     4.3506723   -5.8940160    0.8926054 
C     2.2135143   -5.0588573    5.2129420 
C     5.1754591   -0.1979837    3.6661369 
H     4.1286404   -0.4636596    3.8344002 
H     5.5643989    0.3169635    4.5489913 
H     5.7490960   -1.1179087    3.5103741 
C     5.9854294   -3.2767661   -3.5927193 
H     6.8662160   -2.6270116   -3.6215641 
H     5.9425388   -3.8656022   -4.5143585 
H     6.0816095   -3.9651357   -2.7471477 
C     4.5528541    4.1462015    5.4130067 
H     4.3429130    3.0803126    5.5455336 
H     4.6169989    4.6051323    6.4059518 
H     5.5304238    4.2437366    4.9287921 
C     1.6359046   -6.0505397    4.1935464 
H     2.3031842   -6.1697223    3.3345312 
H     0.6619806   -5.7095625    3.8269693 
H     1.5030361   -7.0332244    4.6609696 
C     3.7619462    6.7203740    0.5270203 
H     4.0337996    7.0939026    1.5198643 
H     4.0808645    7.4621564   -0.2134611 
H     4.3203747    5.7953757    0.3483010 
C     0.0096243   -6.4422015   -4.9567071 
H     0.1619636   -7.2723510   -4.2587095 
H    -0.1523901   -6.8651771   -5.9542723 
H    -0.9005366   -5.9100110   -4.6600855 
C    -0.1062678   -0.8830773   -6.2841586 
H     0.4870658   -1.2439058   -5.4364859 
H    -0.0551847   -1.6285093   -7.0857018 
H    -1.1490443   -0.7951389   -5.9639018 
C     4.6049031   -1.4073019   -4.5829302 
H     3.7157069   -0.7861064   -4.4438932 
H     4.5264089   -1.9289846   -5.5406720 
H     5.4895406   -0.7623767   -4.6025456 
C     0.9771429   -4.3890622   -6.0074111 
H     0.0672163   -3.8322729   -5.7607428 
H     0.8579906   -4.8149103   -7.0107568 
H     1.8152563   -3.6843926   -6.0325767 
C     5.0020726    2.0809538   -1.9614731 
C     4.9709841    3.2600717   -0.9884295 
H     5.2380664    4.1848336   -1.5071096 
H     5.6826744    3.0917833   -0.1736805 
H     3.9693827    3.3648131   -0.5625968 
C     6.4208082    1.8324253   -2.4829370 
H     6.4401943    0.9663316   -3.1515145 
H     7.0897795    1.6400550   -1.6375551 
H     6.7863690    2.7036489   -3.0356539 
C     2.6494158    4.3901643   -5.6688529 
C    -0.4932935    0.9743912   -7.9224638 
H    -1.5205764    1.1102069   -7.5677170 
H    -0.5101985    0.2514520   -8.7466221 
H    -0.1357659    1.9332551   -8.3137630 
C     2.5703666    5.4858990   -4.5968645 
H     1.5819647    5.4992207   -4.1246008 
H     2.7467186    6.4679733   -5.0512857 
H     3.3219929    5.3317759   -3.8157619 
C     1.5969986    4.6455514   -6.7468843 
H     1.6339801    3.8779665   -7.5275614 
H     1.7785445    5.6179952   -7.2178628 
H     0.5861202    4.6535307   -6.3249703 
C     1.8469155    0.3045243   -7.3124355 
H     2.2402106    1.2485887   -7.7042652 
H     1.8656763   -0.4324295   -8.1228758 
H     2.5200872   -0.0413095   -6.5204731 
I    -2.0156696    0.4912283    0.2384421 
C     0.1752980    1.0081304    0.2299569 
H     0.1324059    2.0438781    0.5752812 
C     0.9072910    0.1124976    1.2118611 
H     1.9204801    0.5384477    1.3072158 
H     0.4480812    0.1606036    2.2058638 
C     1.0327199   -1.3310001    0.7269309 
H     1.6545325   -1.8983700    1.4295799 
H     0.0404809   -1.8038036    0.7194208 
C     1.6363380   -1.3901361   -0.6765614 
H     2.6674600   -1.0193752   -0.6345457 
H     1.6912329   -2.4280820   -1.0255191 
C     0.8425354   -0.5407962   -1.6693796 
H    -0.1605968   -0.9701310   -1.8002084 
H     1.3230699   -0.5480509   -2.6560038 
C     0.7155661    0.9023680   -1.1841669 
H     1.7217910    1.3533793   -1.1519333 
H     0.1200340    1.5028521   -1.8809502 
H    -6.9520382    3.4884594   -0.4989501 
H    -6.9290354    4.3817299   -2.0210472 
H    -6.6275099    5.2235083   -0.4882344 
H    -6.6991823    2.4563304    3.0317222 
H    -6.3281945    3.9476265    3.9003259 
H    -6.4525616    2.4102020    4.7786407 
H    -7.8447666   -1.5287555   -2.3309393 
H    -7.7266856    0.0124060   -3.2028294 
H    -7.5841344   -0.0260873   -1.4437695 
H    -7.5093244   -2.8012317    2.0438905 
H    -7.3202917   -1.0466882    2.0751795 
H    -7.2181135   -1.9625835    3.5801929 
