192
Energy =
O     4.3351477   -3.9556819   -1.5201630 
C     5.6632884   -3.8391685   -2.0253024 
O     5.7033501   -2.8426230   -3.0254915 
C     5.3580584   -1.5126412   -2.5715536 
C     6.3260026   -1.0837074   -1.4658779 
C     6.2805825   -2.0997771   -0.3384091 
O     7.2087318   -1.6911987    0.6706333 
H     7.1646963   -2.3452372    1.3825078 
C     6.6175468   -3.4843172   -0.8817955 
O     6.5956669   -4.4700756    0.1435156 
H     5.6678957   -4.5890196    0.4392365 
H     7.6387364   -3.4730829   -1.2846145 
H     5.2611346   -2.1166175    0.0785965 
H     7.3458778   -1.0230954   -1.8706339 
O     5.9213130    0.1943183   -0.9506481 
C     6.8880666    1.2260328   -0.9577773 
O     6.7416638    2.0947952   -2.0693770 
C     5.4922338    2.8189388   -2.1154575 
C     5.5369114    3.6379130   -3.3898393 
O     5.6206497    2.8137288   -4.5573785 
H     6.4165722    2.2704374   -4.4727755 
H     4.6129796    4.2141524   -3.4801702 
H     6.3843275    4.3395666   -3.3441159 
C     5.3517347    3.6826507   -0.8584309 
C     5.4331119    2.7934354    0.3728088 
O     5.3783919    3.6370370    1.5301717 
H     5.2799626    3.0600356    2.3001333 
C     6.7463713    2.0139236    0.3457925 
O     6.8774958    1.1720661    1.4883095 
H     6.5714396    0.2822639    1.2407527 
H     7.5719642    2.7373460    0.3828875 
H     4.5773961    2.0987585    0.3754773 
H     6.1606243    4.4283036   -0.8290632 
O     4.0775853    4.3367683   -0.8410747 
C     4.0403968    5.7409235   -1.0261269 
O     3.5344921    6.0876087   -2.3022206 
C     2.1911123    5.6177782   -2.5476362 
C     1.8684196    5.9808684   -3.9833562 
O     1.8475839    7.3920970   -4.2199080 
H     2.7339372    7.7294776   -4.0335758 
H     0.8748218    5.5986625   -4.2354664 
H     2.6002513    5.4871496   -4.6387467 
C     1.2373858    6.2312018   -1.5173447 
C     1.7008767    5.8960320   -0.1080418 
O     0.8562091    6.6032998    0.8118712 
H     0.9811472    6.2226502    1.6912012 
C     3.1554707    6.3315863    0.0710694 
O     3.6538346    6.0076978    1.3642046 
H     3.9730459    5.0844380    1.3473175 
H     3.1987566    7.4247727   -0.0202605 
H     1.6066118    4.8112581    0.0586543 
O    -0.0795176    5.6868216   -1.6866980 
C    -1.0357848    6.4964241   -2.3684415 
O    -1.6745322    5.7389232   -3.3727513 
C    -2.4283124    4.6003434   -2.8980143 
C    -2.9681988    3.9251010   -4.1434664 
O    -3.9261794    4.7195381   -4.8484406 
H    -3.4785956    5.5258304   -5.1364295 
H    -2.1182558    3.6718213   -4.7929567 
H    -3.4681058    2.9962183   -3.8642650 
C    -3.5130203    5.0519698   -1.9142450 
C    -2.8929109    5.8762233   -0.7976646 
O    -3.9409924    6.3789402    0.0346565 
H    -3.5215152    6.9431084    0.6993287 
C    -2.0714480    7.0241454   -1.3768184 
O    -1.4666999    7.7965628   -0.3443573 
H    -0.7823822    7.2468332    0.0881376 
H    -2.7415892    7.7017108   -1.9215996 
H    -2.2263232    5.2206637   -0.2113971 
H    -4.2675158    5.6507066   -2.4436069 
O    -4.1160166    3.8664551   -1.3630599 
C    -5.5229404    3.8800556   -1.2209554 
O    -6.1897453    3.3481230   -2.3570673 
C    -5.8953184    1.9650023   -2.6481780 
C    -6.2392590    1.0645223   -1.4571235 
C    -5.5377869    1.5890691   -0.2122970 
O    -5.9115765    0.7971514    0.9246386 
H    -5.1055236    0.5968883    1.4284323 
C    -5.8712081    3.0575723    0.0243698 
O    -5.2117864    3.5600739    1.1821785 
H    -4.2569052    3.4674478    1.0356642 
H    -6.9459748    3.1683752    0.2113260 
H    -4.4554784    1.4991480   -0.3729775 
H    -7.3267961    1.0356621   -1.2935261 
O    -5.7250014   -0.2512635   -1.7061809 
C    -6.6471988   -1.2764724   -2.0592302 
O    -6.1099033   -2.0293583   -3.1284663 
C    -4.8792389   -2.7235235   -2.8151804 
C    -4.4042085   -3.3844286   -4.0925075 
O    -5.2546854   -4.4454235   -4.5390707 
H    -6.1081779   -4.0569209   -4.7738672 
H    -4.2992141   -2.6139021   -4.8691889 
H    -3.4193572   -3.8236150   -3.9108009 
C    -5.1277153   -3.7078770   -1.6690414 
C    -5.6568469   -2.9491043   -0.4642101 
O    -5.9429836   -3.8988761    0.5702310 
H    -6.2028158   -3.3993728    1.3572517 
C    -6.9181643   -2.1829397   -0.8547950 
O    -7.4472510   -1.4495514    0.2429397 
H    -6.8069992   -0.7429205    0.4761859 
H    -7.6907788   -2.9053414   -1.1496198 
H    -4.8840811   -2.2440085   -0.1160240 
H    -5.8627143   -4.4615487   -1.9838055 
O    -3.8924717   -4.3409064   -1.3081547 
C    -3.8081178   -5.7525852   -1.4068912 
O    -3.0175429   -6.1606176   -2.5112125 
C    -1.6288089   -5.7627800   -2.4546111 
C    -0.9965609   -6.2841553   -3.7284561 
O    -1.5695362   -5.6809721   -4.8945034 
H    -2.5154151   -5.8810349   -4.8879024 
H    -1.0944188   -7.3799254   -3.7664682 
H     0.0661076   -6.0285101   -3.7349476 
C    -0.9800767   -6.3303026   -1.1842553 
C    -1.7537661   -5.7983732    0.0173241 
O    -1.1575389   -6.2773501    1.2298218 
H    -1.3310659   -5.6101118    1.9109555 
C    -3.2017491   -6.2784889   -0.1031852 
O    -3.9879437   -5.9235953    1.0244634 
H    -4.3985201   -5.0515378    0.8636358 
H    -3.1998289   -7.3758317   -0.1552313 
H    -1.7160166   -4.7007017    0.0093100 
O     0.3828154   -5.9069617   -1.0879652 
C     1.3989252   -6.8901369   -1.1908763 
O     2.1191558   -6.7661150   -2.4048899 
C     2.7844209   -5.4959616   -2.5681553 
C     3.4213724   -5.5245355   -3.9434462 
O     4.4328781   -6.5278980   -4.0779718 
H     4.0086681   -7.3860004   -3.9438472 
H     2.6272735   -5.6700215   -4.6900010 
H     3.8989489   -4.5601338   -4.1406496 
C     3.7788943   -5.2730870   -1.4207945 
C     3.0556587   -5.3732051   -0.0852800 
O     4.0099064   -5.2420158    0.9848963 
H     3.6147131   -4.6879727    1.6711298 
C     2.3402795   -6.7194679    0.0036882 
O     1.6431258   -6.8787901    1.2305377 
H     0.7835989   -6.4162556    1.1587260 
H     3.0906766   -7.5197748   -0.0426077 
H     2.3218141   -4.5605451   -0.0133589 
H     4.5748421   -6.0299441   -1.4629070 
H     2.0435240   -4.6803531   -2.5568270 
H     0.9683222   -7.8988706   -1.2025095 
H    -1.0334257   -7.4297834   -1.2052687 
H    -1.5588570   -4.6633391   -2.4358795 
H    -4.7998429   -6.1870534   -1.5810219 
H    -4.1087956   -1.9979311   -2.5106222 
H    -7.5853638   -0.8452621   -2.4309810 
C    -6.6926047    1.6239701   -3.8904105 
O    -6.2551283    2.3691886   -5.0318453 
H    -6.3549020    3.3076388   -4.8209785 
H    -7.7622180    1.7966406   -3.6974882 
H    -6.5463357    0.5686468   -4.1381146 
H    -4.8221905    1.8458371   -2.8573570 
H    -5.8965233    4.9052664   -1.1249391 
H    -1.7558861    3.8913787   -2.3907058 
H    -0.5394629    7.3256205   -2.8863376 
H     1.2174371    7.3240036   -1.6351467 
H     2.1543558    4.5201387   -2.4619622 
H     5.0503427    6.1664570   -0.9795516 
H     4.6504592    2.1104827   -2.1583912 
H     7.8987191    0.8098276   -1.0466052 
C     5.3806177   -0.6209420   -3.7950639 
O     6.6852399   -0.4510047   -4.3578705 
H     6.9751259   -1.3115517   -4.6886866 
H     5.0244431    0.3726300   -3.5141462 
H     4.6853674   -1.0341141   -4.5394685 
H     4.3310358   -1.5084221   -2.1740470 
H     5.9733752   -4.7710608   -2.5130509 
Br    3.3671123   -0.9842541    1.8577881 
B     1.4985752   -0.6007435    2.3224625 
B     0.1405062   -1.3919000    1.4835723 
Br    0.3898527   -2.6749342    0.0260146 
B     0.4387200    0.3498065    1.2437624 
Br    1.0765378    1.0654705   -0.4691613 
B     0.9657054    1.0337314    2.8051866 
Br    2.2095293    2.5491997    2.8886134 
B    -0.3741525    0.8573396    3.9739267 
Br   -0.6722659    2.1613658    5.4088703 
B     1.0016025   -0.2876896    4.0092879 
Br    2.2953302   -0.3104101    5.4822140 
B     0.4900768   -1.7909775    3.1869838 
Br    1.1732398   -3.5678651    3.6785213 
B    -1.1943240   -1.5751262    2.6541580 
Br   -2.4568524   -3.0802089    2.5677932 
B    -1.2261467   -0.2597103    1.4510046 
Br   -2.5078752   -0.2879548   -0.0303746 
B    -0.7227527    1.2439597    2.2628120 
Br   -1.4185659    3.0033718    1.7208755 
B    -1.7279284    0.0559089    3.1313471 
Br   -3.6068050    0.4274290    3.5953631 
B    -0.6670590   -0.8910869    4.2141265 
Br   -1.3078844   -1.6096502    5.9234465 
