248
Energy =
O    -0.7415765   -2.2030322   -4.5910310 
H    -0.1546955   -1.4295483   -4.4193139 
O     0.6604371    0.1361378   -4.1747582 
H    -0.0363717    0.8257899   -4.1985460 
O    -1.6662618    1.6636572   -4.1333375 
H    -2.3935185    1.0124608   -4.1842807 
O    -3.1262661   -0.7320727   -4.3591244 
H    -2.3870681   -1.3748736   -4.4510066 
O    -3.1673857   -2.1975353    3.8163618 
O    -3.8084476    0.0770533    3.9822954 
O    -1.5093570    4.1918617    3.2882011 
O     0.7023485    4.7951914    2.6822884 
O     4.7542431    2.4741082    1.7457136 
O     5.4254974    0.2025755    1.6416568 
O     3.0920745   -3.9133262    2.2083629 
O     0.8535830   -4.4994532    2.7255692 
C     0.8308838    3.6672564    6.7742840 
C    -1.5758293   -0.7813877    7.4797997 
C     5.1268825    1.1503046    5.7564310 
C     2.6836484   -3.3143464    6.3717910 
C    -1.1327912   -3.2848543    3.2268045 
C    -4.7810484    3.7613805   -0.3930278 
C    -5.1673016    2.9562304    0.5735851 
C    -1.7764181   -3.8842661    2.1237396 
C     3.7029960    2.6911605    2.6084503 
C    -0.8488666    1.4649287    5.6437163 
H    -0.1507473    1.2087113    6.4331787 
C    -3.5194311    2.4325114    2.5573457 
C     1.6462769    3.8759803    3.0880368 
C    -2.3414477   -4.4060901    1.1837465 
C    -4.2765345    2.6978216    1.6457037 
C    -3.9125780   -4.4963195   -0.5764871 
C    -1.5819935    2.9887516    3.9530645 
C    -2.6265421    2.1122814    3.6004896 
C    -0.5538090    4.2945524    2.2414115 
H    -0.9509953    5.0502734    1.5609781 
H    -0.4262169    3.3264448    1.7384624 
C     4.9834878   -2.8479043   -1.9215630 
C     3.1719733   -2.3643720    4.0551021 
C     2.3184135   -3.3080012    4.8877761 
H     2.4989150   -4.3163609    4.4978962 
C     2.6764747    4.5500537   -0.2472263 
C     4.6619040   -0.6117630    2.4502259 
C     2.5798903    5.0584083   -1.5673787 
C    -1.9812354   -0.7942332    6.0067529 
H    -3.0368321   -1.0838151    5.9528335 
C     0.2144631   -3.5733257    3.5210697 
C     4.2396207   -1.8457474    1.9192922 
C     0.4480929    3.6395720    5.2950365 
H     0.0965979    4.6417992    5.0239262 
C    -1.8286595   -2.3968659    4.0690320 
C     1.6125190    3.3244100    4.3683491 
C     3.4792546   -2.7022821    2.7387219 
C     4.7733679    1.1281113    4.2699323 
H     5.6721653    1.4108453    3.7099893 
C     0.8537439   -2.9990823    4.6197623 
C    -1.8652569    0.5625031    5.3288351 
C     3.7240545    3.7115290   -3.5158984 
C    -2.9586086   -5.0938516    0.1077190 
C     2.6939646    4.1131101    0.8858341 
C     2.6352664    2.4484988    4.7341148 
H     2.6117683    2.0071780    5.7244169 
C    -6.5423092    2.2588652    0.5870585 
C     4.7849111   -2.5306814   -0.5538523 
C    -4.3654010    4.5374358   -1.3676702 
C     3.6178931   -1.1342003    4.5389572 
H     3.3720617   -0.8541913    5.5577116 
C     3.6895773    2.1222720    3.8812605 
C    -4.6834079   -3.0576471   -2.3118282 
C    -2.7496196    0.8990988    4.3048746 
C     3.0004697    2.6362316   -4.1065489 
C    -0.5299929   -3.1892410   -3.5581775 
C     3.1601107    4.4003656   -2.5493118 
C     2.6847894    3.5682292    2.1865508 
C     4.5483827   -2.2094593    0.5931923 
C     4.3586940   -0.2439909    3.7606040 
C    -2.1430983    2.9845407   -4.4453819 
C    -0.6906820    2.6813201    4.9792827 
C    -4.3886887   -1.4154564   -4.4143664 
C    -3.5331524   -1.0168998    3.1164539 
H    -2.7583886   -0.7439398    2.3872419 
H    -4.4800827   -1.2537150    2.6273518 
C    -3.6379377    3.9567310   -2.4449821 
C     4.1576314   -3.7162707   -2.4681252 
C    -2.9805402    3.4911756   -3.3498796 
C     0.1262772   -2.1128972    5.4149976 
H     0.6204461   -1.6535316    6.2641679 
C    -4.9131389   -3.9015718   -1.1880243 
C    -4.5443417   -2.3079139   -3.2543090 
C    -7.3382977    2.6225706   -0.6655431 
H    -7.5255324    3.7002108   -0.7223122 
H    -8.3067009    2.1111234   -0.6476936 
H    -6.8097360    2.3209213   -1.5764177 
C     4.7492528    1.2713322    0.9893299 
H     5.3348488    1.4906982    0.0944958 
H     3.7210454    0.9780365    0.7377694 
C    -2.4878517   -6.5395096   -0.1654418 
C    -0.9659058   -6.5405063   -0.3698451 
H    -0.4508353   -6.1654258    0.5208815 
H    -0.6769295   -5.9126999   -1.2187496 
H    -0.6141592   -7.5603997   -0.5636045 
C     6.1315160   -2.1587255   -2.6802828 
C     1.7535801   -4.0063325    1.7396756 
H     1.7688283   -4.7620801    0.9513078 
H     1.4107619   -3.0346355    1.3591786 
C    -1.2098011   -1.8005943    5.1669255 
C    -4.4834364   -2.2262520   -5.7127813 
H    -5.4504306   -2.7334953   -5.7830283 
H    -3.6934511   -2.9826477   -5.7509114 
H    -4.3684206   -1.5530783   -6.5683026 
C    -7.3052005    2.7080874    1.8421811 
H    -6.7548860    2.4497456    2.7530588 
H    -8.2823472    2.2130517    1.8817818 
H    -7.4695018    3.7912712    1.8366184 
C    -6.4501185   -4.9867306    0.5010330 
H    -6.0703225   -5.9871545    0.2683029 
H    -7.4914832   -5.0862109    0.8255315 
H    -5.8682556   -4.5887539    1.3393126 
C     2.4140111    1.6832747   -4.5718942 
C     1.9867498   -4.0513844   -3.3103607 
C     3.5077603   -6.0752585   -3.0509798 
C    -4.6079590    6.0603858   -1.3932197 
C     1.7926747    6.3678703   -1.7799781 
C     0.8672969   -3.6384227   -3.5234012 
C     5.9962848    2.7279943   -3.8588633 
H     7.0161352    2.9060575   -4.2185958 
H     5.5746932    1.8930878   -4.4271557 
H     6.0507744    2.4325065   -2.8059719 
C    -1.4372688   -4.3647420   -3.9153827 
H    -2.4846748   -4.0525892   -3.8599195 
H    -1.2818614   -5.1870246   -3.2137164 
H    -1.2148731   -4.7182291   -4.9262312 
C    -2.8364115   -7.3901658    1.0665216 
H    -2.3424957   -7.0065210    1.9651447 
H    -2.5065090   -8.4239055    0.9111473 
H    -3.9171673   -7.3980535    1.2457034 
C    -7.1975380   -4.6610078   -1.8704534 
H    -8.2450433   -4.7707739   -1.5666432 
H    -6.8185330   -5.6489889   -2.1541515 
H    -7.1649748   -4.0153938   -2.7542737 
C     3.4152671   -6.4661613   -4.5339284 
H     3.5641303   -7.5462301   -4.6480426 
H     4.1807882   -5.9490860   -5.1234297 
H     2.4341033   -6.2105892   -4.9481621 
C     2.4202444   -6.8114984   -2.2541950 
H     2.4388162   -6.5203868   -1.1977649 
H     2.5822174   -7.8938961   -2.3138059 
H     1.4243738   -6.5938960   -2.6535708 
C    -6.3172823    0.7416770    0.6340652 
H    -5.7535485    0.3991763   -0.2408165 
H    -7.2828052    0.2241244    0.6483966 
H    -5.7628651    0.4564214    1.5343649 
C    -5.3861581    6.4959215   -0.1522231 
H    -6.3696294    6.0158047   -0.1100086 
H    -5.5397322    7.5802251   -0.1739561 
H    -4.8454348    6.2458947    0.7668858 
C     3.2643409   -4.5574959   -2.9398791 
C    -3.1914072   -7.1080097   -1.3966824 
H    -2.8343746   -8.1254690   -1.5889284 
H    -2.9984995   -6.5027638   -2.2883095 
H    -4.2756974   -7.1529391   -1.2484841 
C     7.4570858   -2.6211259   -2.0548674 
H     7.5785950   -3.7059867   -2.1468746 
H     7.5050651   -2.3597698   -0.9922130 
H     8.2982590   -2.1363068   -2.5638619 
C     5.9963415   -0.6384064   -2.5248871 
H     5.0512946   -0.2769498   -2.9440295 
H     6.8180342   -0.1370062   -3.0481484 
H     6.0362099   -0.3475184   -1.4696509 
C    -5.4609513   -0.3264404   -4.3656038 
H    -6.4591571   -0.7726146   -4.3530732 
H    -5.3710115    0.3136061   -5.2490782 
H    -5.3357897    0.2844905   -3.4666074 
C    -6.3780654   -4.0658951   -0.7161779 
C    -0.8832037   -2.5985771   -2.1856631 
H    -0.2306196   -1.7492400   -1.9597070 
H    -0.7587113   -3.3502417   -1.3995036 
H    -1.9244001   -2.2612656   -2.1863849 
C    -2.9390962    2.9625332   -5.7539111 
H    -3.2710241    3.9709958   -6.0185448 
H    -3.8240038    2.3268230   -5.6519832 
H    -2.3095356    2.5691531   -6.5587723 
C     4.8870877   -6.4370045   -2.5011571 
H     5.6840634   -5.9435436   -3.0679121 
H     5.0414570   -7.5190042   -2.5741192 
H     4.9877456   -6.1477396   -1.4492702 
C    -6.9258503   -2.6807807   -0.3462819 
H    -7.9679122   -2.7648323   -0.0165720 
H    -6.8919068   -1.9979820   -1.2012903 
H    -6.3427170   -2.2394055    0.4685273 
C     6.0925678   -2.5409095   -4.1590858 
H     6.2117544   -3.6215160   -4.2942729 
H     6.9066433   -2.0400288   -4.6940257 
H     5.1452425   -2.2446338   -4.6209290 
C    -3.2461243    6.7681280   -1.4251988 
H    -2.6694290    6.4781812   -2.3094668 
H    -2.6576928    6.5197242   -0.5357615 
H    -3.3874974    7.8547329   -1.4503627 
C     0.3808408    6.2003913   -1.2034858 
H     0.4255286    5.9737858   -0.1334494 
H    -0.1644658    5.3924749   -1.7041083 
H    -0.1838341    7.1301050   -1.3331645 
C    -0.8976146    3.8650775   -4.5651355 
H    -0.3075484    3.7977788   -3.6472121 
H    -1.1867410    4.9073535   -4.7256407 
H    -0.2812683    3.5336885   -5.4069782 
C    -5.4044558    6.4080379   -2.6591977 
H    -4.8626803    6.1087332   -3.5626905 
H    -5.5766298    7.4894390   -2.7068869 
H    -6.3781696    5.9058715   -2.6623653 
C     1.7205862    0.4949098   -5.0852282 
C     2.6807161   -0.6946149   -5.1004031 
H     3.5569002   -0.4635179   -5.7121241 
H     2.1764403   -1.5728110   -5.5166327 
H     3.0043540   -0.9265164   -4.0824610 
C     1.1514583    0.7545290   -6.4834616 
H     0.4376524    1.5832752   -6.4630415 
H     0.6369161   -0.1453558   -6.8369198 
H     1.9526052    1.0064153   -7.1849769 
C     5.1507259    3.9974509   -4.0273781 
C     2.5218965    7.4900151   -1.0246320 
H     1.9798575    8.4351228   -1.1457063 
H     3.5393455    7.6265306   -1.4073623 
H     2.5857101    7.2682974    0.0459432 
C     5.7805528    5.1446447   -3.2380582 
H     5.2062865    6.0703123   -3.3516627 
H     6.7962780    5.3298801   -3.6037788 
H     5.8398173    4.9096786   -2.1698241 
C     5.0641780    4.3709614   -5.5147712 
H     4.6180439    3.5606122   -6.1010941 
H     6.0672639    4.5665528   -5.9112842 
H     4.4567129    5.2711639   -5.6590954 
C     1.7133253    6.7088413   -3.2672021 
H     2.7089470    6.8767729   -3.6917926 
H     1.1279010    7.6243714   -3.4050165 
H     1.2330357    5.9059988   -3.8368130 
H     4.2916539    0.8815615    6.4088937 
H     5.4615908    2.1515811    6.0453311 
H     5.9401283    0.4454525    5.9557534 
H     2.5512106   -2.3449458    6.8602056 
H     3.7322236   -3.6031053    6.4949010 
H     2.0623912   -4.0402010    6.9058906 
H     1.6218464    4.4050579    6.9417452 
H     1.1924835    2.7058267    7.1491302 
H    -0.0371041    3.9507474    7.3777834 
H    -2.1994587   -0.0710375    8.0315118 
H    -0.5323768   -0.4974013    7.6414415 
H    -1.7189455   -1.7751453    7.9157416 
