140
Energy =
H     1.3496950    7.0636714   -0.6695483 
C     0.8520729    7.1558487   -1.6297532 
C     0.8741087    8.3682056   -2.3108108 
C     0.2398825    8.4908446   -3.5451427 
C    -0.4192816    7.3997915   -4.1063945 
C    -0.4430590    6.1815759   -3.4369059 
C     0.1928681    6.0611266   -2.1967211 
P     0.1194946    4.4662118   -1.3862301 
O     0.0433364    3.2558975   -2.2399767 
O    -1.1627404    4.6453600   -0.3893355 
C    -1.7341724    3.5107067    0.1980720 
C    -2.8713477    2.9844623   -0.3919556 
C    -3.4708401    1.8833045    0.1964743 
C    -2.9666264    1.2922775    1.3561439 
C    -1.8141057    1.8531919    1.9059779 
C    -1.1801259    2.9681754    1.3587087 
C     0.0822450    3.5610497    1.9680226 
C     1.3017277    2.8756568    1.3717116 
C     1.8637149    1.7333858    1.9418797 
C     2.9863580    1.0957260    1.4141846 
C     3.5364375    1.6354892    0.2506299 
C     3.0058785    2.7585240   -0.3639136 
C     1.8964697    3.3612078    0.2053638 
O     1.4145548    4.5262247   -0.4020128 
H     3.4507889    3.1578369   -1.2693249 
O     4.6920708    1.0778745   -0.3071639 
P     4.5876850   -0.2196742   -1.2903165 
O     3.4277052   -0.1998925   -2.2135820 
O     4.6220921   -1.4990560   -0.2781738 
C     3.4354748   -1.9798867    0.2860276 
C     2.8477637   -3.0859587   -0.3050365 
C     1.7007503   -3.6103817    0.2684447 
C     1.1252440   -3.0609949    1.4149365 
C     1.7478705   -1.9408254    1.9656086 
C     2.9098251   -1.3822274    1.4333749 
C     3.5736747   -0.1585784    2.0455862 
C     3.5260746   -0.1577465    3.5808568 
H     3.9038458   -1.1299692    3.9248225 
C     4.3620537    0.9597801    4.2021831 
C     4.3209305    0.9241612    5.7275983 
H     4.6947551   -0.0329126    6.1106421 
H     4.9343065    1.7208901    6.1622670 
H     3.2958993    1.0531271    6.0957233 
H     5.4003986    0.8693711    3.8543048 
H     3.9977000    1.9333075    3.8483314 
H     2.4946900   -0.0832570    3.9458156 
H     4.6321767   -0.1934196    1.7621230 
H     1.3130719   -1.4911086    2.8524720 
C    -0.1475720   -3.6503716    2.0060068 
C    -1.3561494   -2.9738163    1.3778467 
C    -1.9283944   -1.8223780    1.9200077 
C    -3.0368853   -1.1893688    1.3568601 
C    -3.5607195   -1.7449797    0.1879156 
C    -3.0221251   -2.8795023   -0.3961212 
C    -1.9269718   -3.4758629    0.2068760 
O    -1.4320419   -4.6490891   -0.3732025 
P    -0.1215268   -4.5965058   -1.3373253 
O    -0.0387768   -3.3978021   -2.2067732 
O     1.1457028   -4.7534860   -0.3179905 
C    -0.1715106   -6.2047616   -2.1229361 
C     0.5139588   -6.3501102   -3.3338893 
C     0.5112293   -7.5797735   -3.9823748 
C    -0.1758152   -8.6579487   -3.4295470 
C    -0.8594272   -8.5105810   -2.2246956 
C    -0.8591931   -7.2863590   -1.5646509 
H    -1.3952608   -7.1752241   -0.6275062 
H    -1.3984031   -9.3509544   -1.7974188 
H    -0.1813506   -9.6163736   -3.9412328 
H     1.0420737   -7.6932669   -4.9229488 
H     1.0406624   -5.5048749   -3.7685617 
H    -3.4475215   -3.2910149   -1.3054432 
O    -4.6977879   -1.1890488   -0.4098508 
P    -4.5540125    0.1014366   -1.3906764 
O    -3.3419576    0.0976000   -2.2458599 
O    -4.6414688    1.3909183   -0.3911274 
C    -6.1536623    0.1508931   -2.1942695 
C    -7.2634936   -0.5418807   -1.7023880 
C    -8.4775860   -0.4546080   -2.3760189 
C    -8.5864946    0.3202428   -3.5282141 
C    -7.4794694    1.0115120   -4.0156600 
C    -6.2604814    0.9279417   -3.3534480 
H    -5.3941980    1.4606652   -3.7369746 
H    -7.5631211    1.6137915   -4.9154996 
H    -9.5373771    0.3838493   -4.0499217 
H    -9.3404112   -0.9960250   -1.9994388 
H    -7.1830191   -1.1479319   -0.8058075 
C    -3.6416529    0.0688129    1.9601272 
C    -3.6410412    0.0633296    3.4962888 
H    -2.6194012    0.0720091    3.8949787 
C    -4.4241851    1.2332315    4.0899206 
C    -4.4517800    1.1932772    5.6152409 
H    -4.9187495    0.2697997    5.9779563 
H    -3.4370116    1.2383797    6.0284914 
H    -5.0168511    2.0373714    6.0254071 
H    -3.9796098    2.1802664    3.7564348 
H    -5.4505701    1.2155585    3.6981661 
H    -4.0919667   -0.8824894    3.8253483 
H    -4.6920330    0.0985223    1.6480405 
H    -1.4963565   -1.4026430    2.8224987 
C    -0.1781313   -3.6301520    3.5418153 
H    -1.1578351   -4.0113410    3.8594548 
C     0.9247989   -4.4823458    4.1675300 
C     0.8586025   -4.4764063    5.6924611 
H     0.9824414   -3.4606859    6.0871523 
H    -0.1064432   -4.8571257    6.0476729 
H     1.6454815   -5.1017366    6.1280877 
H     0.8398561   -5.5123510    3.7944512 
H     1.9060011   -4.1121527    3.8421200 
H    -0.1065571   -2.6061757    3.9276885 
H    -0.1801008   -4.7040466    1.7051448 
H     3.2742883   -3.5300854   -1.1983207 
C     6.2298970   -0.2745985   -1.9977333 
C     7.3682522   -0.2652452   -1.1842835 
C     8.6267698   -0.3158431   -1.7711220 
C     8.7500159   -0.3761703   -3.1587642 
C     7.6153594   -0.3855250   -3.9650309 
C     6.3500707   -0.3347465   -3.3879025 
H     5.4602107   -0.3418903   -4.0107657 
H     7.7124625   -0.4325417   -5.0456568 
H     9.7366322   -0.4161824   -3.6118703 
H     9.5137863   -0.3086375   -1.1446319 
H     7.2742851   -0.2191519   -0.1027498 
H     1.4152350    1.3287068    2.8433380 
C     0.0818722    3.5578062    3.5042428 
H     1.0528871    3.9483399    3.8374180 
C    -1.0394736    4.4091993    4.0972344 
C    -0.9997879    4.4295787    5.6227445 
H    -1.1035776    3.4174579    6.0319253 
H    -1.8103858    5.0406380    6.0345129 
H    -0.0513056    4.8411321    5.9880065 
H    -0.9594926    5.4336851    3.7082599 
H    -2.0108463    4.0227257    3.7612615 
H     0.0082662    2.5377803    3.9002438 
H     0.1230528    4.6113712    1.6565455 
H    -1.3982994    1.4105674    2.8059329 
H    -3.2789849    3.4203234   -1.2980479 
H    -0.9467845    5.3255721   -3.8776245 
H    -0.9114089    7.4940555   -5.0698862 
H     0.2625447    9.4400338   -4.0732919 
H     1.3915360    9.2186630   -1.8769688 
