18
Energy =
C     2.8799886    1.2587032   -0.1907776 
C     3.5607658    0.0000175    0.3482515 
C     2.8800239   -1.2586887   -0.1907741 
C     1.3769639   -1.2630979    0.1377857 
C     0.7416602   -0.0000201   -0.4140324 
C     1.3769283    1.2630759    0.1377862 
H     3.5062759    0.0000188    1.4464513 
H     4.6246928    0.0000307    0.0816255 
H     3.3420866   -2.1613144    0.2271277 
H     3.0133907   -1.3078902   -1.2808881 
H     0.8955387   -2.1530038   -0.2808635 
H     1.2389955   -1.2941362    1.2265864 
H     0.7462505   -0.0000182   -1.5078500 
I    -1.4319523    0.0000176    0.0339869 
H     0.8954836    2.1529723   -0.2808610 
H     1.2389649    1.2941116    1.2265878 
H     3.0133532    1.3079033   -1.2808919 
H     3.3420311    2.1613421    0.2271187 
