167
Energy =
H     0.5313322    7.2378610   -0.2917100 
C     0.3344204    7.2726159   -1.3596455 
C     0.3724259    8.4870117   -2.0340269 
C     0.1216674    8.5350212   -3.4048797 
C    -0.1686402    7.3689196   -4.1078157 
C    -0.2086644    6.1471574   -3.4434855 
C     0.0434556    6.1025295   -2.0698585 
P    -0.0299364    4.5149783   -1.2525098 
O    -0.1677355    3.2990310   -2.0937047 
O    -1.2590229    4.7193008   -0.1978553 
C    -1.8327881    3.5822287    0.3836970 
C    -3.0046982    3.0975421   -0.1727542 
C    -3.5904650    1.9800495    0.3983834 
C    -3.0411944    1.3350815    1.5070169 
C    -1.8588019    1.8609632    2.0284974 
C    -1.2351727    2.9892596    1.4964694 
C     0.0600710    3.5456889    2.0686782 
C     1.2495357    2.8612199    1.4125409 
C     1.8277735    1.7102407    1.9465865 
C     2.9482348    1.0946468    1.3895510 
C     3.4753622    1.6587444    0.2268798 
C     2.9210844    2.7872215   -0.3595237 
C     1.8146956    3.3698693    0.2405649 
O     1.3161025    4.5439417   -0.3339698 
H     3.3508015    3.2129999   -1.2605572 
O     4.6360167    1.1291318   -0.3482475 
P     4.5816807   -0.1592741   -1.3447694 
O     3.4534193   -0.1379391   -2.3098989 
O     4.5869472   -1.4569360   -0.3598511 
C     3.3955033   -1.9423463    0.1913204 
C     2.7939895   -3.0278460   -0.4246140 
C     1.6431455   -3.5541399    0.1427121 
C     1.0808571   -3.0313103    1.3081780 
C     1.7166342   -1.9303624    1.8817980 
C     2.8814329   -1.3712602    1.3572588 
C     3.5538843   -0.1644961    1.9899730 
C     3.5315128   -0.1914319    3.5252152 
H     3.9301232   -1.1633495    3.8455449 
C     4.3633862    0.9298932    4.1459065 
C     4.3526561    0.8769792    5.6709866 
H     4.7589551   -0.0734126    6.0368479 
H     4.9535183    1.6853627    6.1013655 
H     3.3320615    0.9761369    6.0599507 
H     5.3958918    0.8590934    3.7768354 
H     3.9784621    1.9022547    3.8110442 
H     2.5064113   -0.1377210    3.9109655 
H     4.6080350   -0.1889553    1.6915263 
H     1.2935395   -1.4998540    2.7839416 
C    -0.1903804   -3.6262357    1.8977319 
C    -1.3996393   -2.9166163    1.3089475 
C    -1.9696179   -1.7952071    1.9134140 
C    -3.0861082   -1.1381466    1.3954150 
C    -3.6170114   -1.6296499    0.2007320 
C    -3.0766882   -2.7298582   -0.4477204 
C    -1.9768302   -3.3578598    0.1168720 
O    -1.5054960   -4.5166028   -0.5090246 
P    -0.1968068   -4.4946189   -1.4763453 
O    -0.1000807   -3.2982496   -2.3512923 
O     1.0722946   -4.6755954   -0.4688029 
C    -0.2891689   -6.1070924   -2.2456162 
C     0.0020142   -6.2097276   -3.6082826 
C    -0.0433210   -7.4553565   -4.2267908 
C    -0.3782636   -8.5881404   -3.4899148 
C    -0.6685258   -8.4824354   -2.1303413 
C    -0.6245168   -7.2438688   -1.5015538 
H    -0.8513327   -7.1654281   -0.4420571 
H    -0.9315029   -9.3674321   -1.5583069 
H    -0.4148622   -9.5592105   -3.9759272 
H     0.1818053   -7.5391506   -5.2858807 
H     0.2593851   -5.3219894   -4.1790512 
H    -3.5164183   -3.1026016   -1.3672134 
O    -4.7740364   -1.0627652   -0.3452740 
P    -4.7079597    0.2929662   -1.2450997 
O    -3.5318548    0.3757386   -2.1474428 
O    -4.7856236    1.5129276   -0.1641210 
C    -6.3278804    0.3265110   -1.9981735 
C    -7.4832828    0.0205317   -1.2711499 
C    -8.7189512    0.0653022   -1.9056071 
C    -8.8025232    0.4144518   -3.2529501 
C    -7.6507149    0.7206059   -3.9727974 
C    -6.4082469    0.6769726   -3.3490203 
H    -5.5041662    0.9092228   -3.9052560 
H    -7.7171500    0.9918242   -5.0223246 
H    -9.7713618    0.4464967   -3.7435628 
H    -9.6194662   -0.1752137   -1.3482698 
H    -7.4203508   -0.2534369   -0.2216852 
C    -3.6904776    0.0809522    2.0745287 
C    -3.6461591    0.0114278    3.6079120 
H    -2.6135851    0.0215736    3.9771845 
C    -4.4282678    1.1463529    4.2670562 
C    -4.4020109    1.0556670    5.7900692 
H    -4.8430404    0.1139062    6.1376576 
H    -3.3737878    1.1034007    6.1683828 
H    -4.9642770    1.8770685    6.2471662 
H    -4.0112678    2.1117736    3.9506425 
H    -5.4669159    1.1232365    3.9093237 
H    -4.0735720   -0.9533890    3.9119905 
H    -4.7491020    0.1119115    1.7916833 
H    -1.5348435   -1.4244929    2.8355631 
C    -0.1990921   -3.6540371    3.4332750 
H    -1.1788361   -4.0337243    3.7525167 
C     0.9017459   -4.5366588    4.0187960 
C     0.8555454   -4.5691085    5.5440434 
H     0.9958089   -3.5650831    5.9624569 
H    -0.1093315   -4.9476432    5.9019065 
H     1.6404207   -5.2138817    5.9537420 
H     0.7981370   -5.5552549    3.6202193 
H     1.8831513   -4.1702115    3.6895800 
H    -0.1106388   -2.6436842    3.8504390 
H    -0.2391724   -4.6696743    1.5643486 
H     3.2112581   -3.4551908   -1.3305834 
C     6.2450744   -0.1871473   -1.9999149 
C     7.3567112   -0.1978461   -1.1499431 
C     8.6334388   -0.2283788   -1.6974491 
C     8.8016719   -0.2478967   -3.0815848 
C     7.6935720   -0.2358995   -3.9241533 
C     6.4101818   -0.2057068   -3.3869724 
H     5.5417097   -0.1972489   -4.0393937 
H     7.8258124   -0.2506851   -5.0019821 
H     9.8026187   -0.2728674   -3.5033506 
H     9.4996452   -0.2375672   -1.0424533 
H     7.2301084   -0.1832670   -0.0710065 
H     1.4024995    1.2871793    2.8509478 
C     0.1134887    3.5037899    3.6041642 
H     1.1042615    3.8620377    3.9142648 
C    -0.9666237    4.3674211    4.2538672 
C    -0.8889371    4.3350994    5.7777364 
H    -1.0180420    3.3137345    6.1558668 
H    -1.6682038    4.9586745    6.2291526 
H     0.0812554    4.7026679    6.1325317 
H    -0.8650017    5.4014569    3.8964933 
H    -1.9573666    4.0213012    3.9307802 
H     0.0262468    2.4760861    3.9768283 
H     0.1062477    4.6030952    1.7825584 
H    -1.4074214    1.3755706    2.8886104 
H    -3.4440155    3.5726774   -1.0436309 
H    -0.4320840    5.2326600   -3.9858919 
H    -0.3629418    7.4078015   -5.1755563 
H     0.1540419    9.4874267   -3.9266946 
H     0.5998353    9.3986849   -1.4894357 
C    -0.9962669   -0.4697745   -3.1671498 
N     0.0823330    0.1512930   -2.6490299 
C     0.8254095    1.0019780   -3.3843112 
C     0.4743242    1.2793528   -4.6868911 
C    -0.6660490    0.6919973   -5.2274676 
C    -1.3988927   -0.2094633   -4.4581397 
H    -2.2872040   -0.6981953   -4.8377643 
C    -1.0763435    1.0857022   -6.6135568 
O    -0.3648273    1.7309402   -7.3555384 
O    -2.3065587    0.6628162   -6.9036674 
C    -2.8308960    1.0515951   -8.2120575 
C    -4.2534351    0.5481968   -8.3038310 
C    -4.8759113    0.9516452   -9.6391640 
H    -5.9062180    0.5904323   -9.7107730 
H    -4.3138533    0.5328542  -10.4816469 
H    -4.8935503    2.0414698   -9.7540806 
H    -4.2604466   -0.5434083   -8.1965987 
H    -4.8377825    0.9646036   -7.4737476 
H    -2.1897559    0.6138428   -8.9858099 
H    -2.7798190    2.1437884   -8.2897740 
H     1.0692608    1.9766712   -5.2649436 
H     1.6816811    1.4424350   -2.8937362 
C     0.4218602   -0.0973243   -1.2341381 
H    -0.4694395    0.0836878   -0.6276832 
H     1.2223043    0.5775346   -0.9378853 
H     0.7409504   -1.1373019   -1.1303820 
H    -1.5220625   -1.1484118   -2.5095407 
