130
Energy =
C     0.2689388   -5.1058786   -0.1505335 
N    -0.1374603   -4.4190158   -1.3709858 
C     0.9311476   -3.8544775   -2.0230518 
O     0.8937192   -3.3196955   -3.1347146 
N     2.0509252   -3.9901567   -1.2403762 
C     3.3886128   -3.6295408   -1.6921372 
N     3.8941233   -2.3834285   -1.1404498 
C     3.9553980   -1.2166598   -1.8540776 
O     3.5622100   -1.0634626   -3.0171020 
N     4.5682335   -0.2636848   -1.0911371 
C     4.7869157    1.1011341   -1.5252217 
N     3.8451757    2.0645009   -0.9725718 
C     2.8176204    2.6027712   -1.7107675 
O     2.4304061    2.1914632   -2.8048218 
N     2.3171846    3.6905073   -1.0342805 
C     1.3898034    4.6409576   -1.6257254 
N     0.0260671    4.4945366   -1.1611224 
C    -0.9690654    3.9338346   -1.9186096 
O    -0.8367038    3.4658646   -3.0501121 
N    -2.1468262    4.0216927   -1.2207745 
C    -3.4314689    3.6518088   -1.7828768 
N    -3.9275688    2.3680240   -1.3204850 
C    -3.8521073    1.2115657   -2.0545082 
O    -3.3390843    1.0963927   -3.1662473 
N    -4.4719460    0.2009950   -1.3469240 
C    -4.8687185   -1.0488697   -1.9901304 
N    -4.0971506   -2.1946452   -1.5546509 
C    -3.0431342   -2.7262523   -2.2520248 
O    -2.6824858   -2.3865056   -3.3802805 
N    -2.4691716   -3.7147754   -1.4859357 
C    -1.4430065   -4.6183445   -1.9855557 
H    -1.7583689   -5.6532946   -1.7978513 
H    -1.3426441   -4.4532443   -3.0619832 
C    -3.2707578   -4.0131468   -0.3016270 
N    -2.5951357   -3.8175266    0.9651143 
C    -3.1123735   -2.7661614    1.6796621 
O    -2.7981340   -2.4502372    2.8256909 
N    -4.0616711   -2.1314685    0.9036571 
C    -5.0199277   -1.1910898    1.4794122 
N    -4.7877453    0.1869762    1.0949278 
C    -4.1324475    1.1059389    1.8757047 
O    -3.7927447    0.9400140    3.0479443 
N    -3.9407135    2.2509695    1.1355293 
C    -3.4716882    3.5029049    1.7175419 
N    -2.1655505    3.9230154    1.2326442 
C    -1.0163602    3.8641842    1.9833695 
O    -0.9077741    3.3449389    3.0960402 
N    -0.0058317    4.4917564    1.2954871 
C     1.3122783    4.7505706    1.8605336 
N     2.3546381    3.8397742    1.4150289 
C     2.8355594    2.7982636    2.1625180 
O     2.4521488    2.4915175    3.2987520 
N     3.8440325    2.1876696    1.4721916 
C     4.5983449    1.0505029    1.9628747 
N     4.2439426   -0.2175155    1.3377169 
C     3.5284902   -1.1872345    2.0021606 
O     2.9186271   -1.0276803    3.0588139 
N     3.6344969   -2.3660747    1.3029613 
C     3.1438344   -3.6394414    1.8020919 
N     1.8877708   -4.0576027    1.2120978 
C     0.6887101   -3.9973336    1.8759051 
O     0.5154525   -3.5562598    3.0120309 
N    -0.2775486   -4.5547903    1.0760500 
C    -1.6436961   -4.7703402    1.5121595 
H    -1.9548609   -5.7789219    1.2118186 
H    -1.6669363   -4.6855943    2.6019821 
C     1.7919838   -4.7809626   -0.0447701 
H     2.4411788   -5.6657747   -0.0289285 
H     3.9037636   -4.4038184    1.5953277 
H     2.9952451   -3.5507923    2.8817032 
C     4.5315254   -2.2611316    0.1663264 
H     5.3525190   -2.9833021    0.2576415 
C     4.9806094   -0.7668205    0.2070560 
H     6.0588257   -0.6236473    0.3503979 
H     5.6656193    1.2328557    1.7834795 
H     4.4129033    0.9684276    3.0372197 
C     4.1378456    2.8527974    0.2131354 
H     5.1790808    3.1975351    0.1956481 
C     3.0815637    3.9979644    0.1632374 
H     3.5069548    5.0072124    0.0968590 
H     1.6043620    5.7715939    1.5863481 
H     1.2390298    4.6684703    2.9480293 
C    -0.4780791    5.0994514    0.0615780 
H    -0.2747836    6.1779172    0.0671882 
C    -1.9954022    4.7357158    0.0344783 
H    -2.6671158    5.6028461    0.0653906 
H    -3.4078710    3.3688752    2.8010990 
H    -4.1963992    4.2949716    1.4870630 
C    -4.7051673    2.2093443   -0.1110708 
H    -5.5189729    2.9452603   -0.0772920 
C    -5.1872095    0.7310827   -0.1877087 
H    -6.2699761    0.6195606   -0.3297455 
H    -6.0274223   -1.4814007    1.1560370 
H    -4.9504794   -1.2520394    2.5686078 
C    -4.3521173   -2.8916917   -0.3092072 
H    -5.3853444   -3.2612231   -0.2918798 
H    -3.6776803   -5.0305081   -0.3667882 
H    -5.9273033   -1.2333713   -1.7674963 
H    -4.7326064   -0.9408133   -3.0695733 
H    -3.3253954    3.6029892   -2.8700006 
H    -4.1662708    4.4215046   -1.5160153 
H     1.7405836    5.6533563   -1.3858114 
H     1.3924695    4.4965956   -2.7094640 
H     5.7979832    1.4056713   -1.2268579 
H     4.7019739    1.1201530   -2.6151564 
H     4.0769400   -4.4411505   -1.4291365 
H     3.3574718   -3.5206515   -2.7795478 
H     0.0410864   -6.1767064   -0.2274264 
H    -1.1005520    0.2147201   -3.7167079 
C    -0.2334361    0.1988429   -3.0501978 
C    -0.5341048   -0.7091782   -1.8804483 
H    -1.4519572   -0.3815892   -1.3863329 
H    -0.6662058   -1.7382710   -2.2133315 
Se    0.8818564   -0.7979115   -0.4929938 
Se    0.3338827    1.1170607    0.7156484 
C    -0.9230952    0.3226845    2.0297154 
C    -0.2693844   -0.3617380    3.2062284 
N     0.4457566    0.6113903    4.0938087 
H     0.8624870    0.1307359    4.8957532 
H     1.2070042    1.1020692    3.5967259 
H    -0.1900037    1.3269765    4.4566500 
H    -1.0414878   -0.8470863    3.8109343 
H     0.4532461   -1.1188314    2.8954500 
H    -1.5466835   -0.3939469    1.4918045 
H    -1.5479487    1.1538027    2.3578329 
N     0.9373332   -0.2857942   -3.8498370 
H     1.8191140   -0.2134429   -3.3203818 
H     1.0455416    0.2602547   -4.7109296 
H     0.8296624   -1.2723775   -4.1088444 
H    -0.0199852    1.2234320   -2.7367195 
