118
Energy =
Te    2.5598314   -2.7338301   -1.1683625 
C     1.4283618   -2.7032563    1.4803275 
C     1.1551284   -3.2852249    0.2578021 
C     2.5926669   -1.8601660    1.5757644 
C     3.3544210   -1.6837953    0.4375218 
C     0.5330677   -2.9317018    2.6814098 
H     4.0101108   -1.1437224    3.0229879 
H     2.6505189   -0.0768050    2.7423567 
C     0.7166179   -1.8763659    3.7710183 
H    -0.5109287   -2.9751424    2.3566613 
H     0.7607019   -3.9223958    3.1026497 
C     2.1972400   -1.6996340    4.0819955 
H     0.2943825   -0.9165837    3.4377203 
H     0.1589878   -2.1788603    4.6658582 
C     2.9274728   -1.1346350    2.8642596 
H     2.3441433   -1.0268282    4.9354559 
H     2.6278694   -2.6725980    4.3593858 
B     4.5157319   -0.7172948    0.1751342 
O     4.9704362   -0.4819974   -1.1069466 
C     5.9972822    0.5347510   -1.0586826 
C     5.8849728    1.0778648    0.3931494 
O     5.1561005    0.0531949    1.1230808 
C     5.0212247    2.3089503    0.2557903 
C     5.1138173    1.2642876   -3.3498357 
C     4.7065687    2.5254956   -1.1627091 
C     5.6721880    1.7135672   -2.0048476 
C     6.9704785    2.5167623   -2.2105591 
C     4.5182092    3.0818389    1.2298807 
C     3.6455937    3.2631797   -1.5254507 
C     3.6152089    4.2053414    0.8110993 
H     6.9611141    0.0677835   -1.2963916 
H     7.4059708    2.8350200   -1.2561953 
H     6.7668256    3.4148215   -2.8024559 
H     7.7150814    1.9121169   -2.7412446 
H     5.8243078    0.6032475   -3.8597801 
H     4.9411053    2.1309427   -3.9974978 
H     4.1688124    0.7278632   -3.2299111 
C     2.7922768    3.8022245   -0.4129924 
H     3.3260173    3.3574588   -2.5616020 
H     4.7831210    2.9316488    2.2752000 
C     1.9038404    5.0230852   -0.6093461 
H     2.1138923    2.9816827   -0.1041058 
C     1.5427535    5.4479379    0.8431122 
C     2.5681739    4.7682187    1.8116809 
H     4.2612797    5.0541146    0.5059809 
C     3.2000853    5.7989353    2.7468993 
C     1.9182896    3.6563103    2.6396010 
H     2.4566006    6.2079287    3.4410903 
H     3.6339121    6.6310701    2.1802621 
H     4.0001212    5.3419564    3.3415199 
H     2.6594959    3.2181810    3.3173285 
H     1.5097009    2.8536968    2.0180755 
H     1.0993091    4.0535822    3.2466167 
O     0.1855658    4.9726285    1.0033943 
H     1.5310296    6.5357525    0.9806782 
O     0.6456900    4.6920030   -1.2369795 
H     2.3951462    5.8132078   -1.1868532 
B    -0.2753348    4.5391259   -0.2206094 
H    -4.7868003   -0.9657441    4.1879730 
H    -3.9860591   -2.5250220    3.9327791 
C    -4.2797379   -1.5901123    3.4430507 
H    -3.3735626   -1.0715046    3.1179926 
H    -3.4510770   -4.1714192    2.1561104 
C    -5.7129410   -0.6028500    1.5677209 
H    -1.2495896    4.6494618   -2.9090531 
C    -5.2043550   -1.8824223    2.2634094 
O    -4.7185921    0.4489547    1.5268408 
H    -2.2686838   -2.6664283   -0.8451260 
C    -3.7286780   -3.7167862    1.2071515 
C    -2.4965679    3.7219047   -1.4280360 
B    -4.6739956    0.9525125    0.2410275 
C    -3.6079321    2.8141210   -1.3057422 
C    -3.7321139    2.1022252   -0.1310360 
C    -4.9191049   -2.0644742   -0.1604196 
C    -2.3148328    4.5793937   -2.6647753 
C    -4.5276271   -2.6401428    1.1323729 
O    -5.4910180    0.2649340   -0.6356050 
H    -1.1803191   -2.5413860   -2.9671630 
C    -5.8992234   -0.9364291    0.0679312 
H    -2.6431537    5.6007604   -2.4211575 
C    -2.0671338   -5.2068298   -0.1690107 
C    -1.6294776    3.8250751   -0.3631376 
C    -3.1128357   -3.3083733   -1.1810812 
H    -1.4282093   -6.0041362   -2.1773259 
H    -7.1247716   -2.8842710    1.9132374 
C    -3.3356882   -4.3572633   -0.0931017 
C    -6.4331167   -2.6791211    2.7392115 
H    -5.1689917    3.5251557   -4.3200680 
C    -4.2784039   -2.3754180   -1.3006230 
H    -4.4712969   -1.8357381   -2.2261372 
C    -1.5594921   -5.0533534   -1.6482214 
O    -1.0206603   -4.6300919    0.6463783 
C    -1.9007426   -3.2269278   -3.4223970 
H    -6.9775738   -2.1251313    3.5133528 
C    -4.5813166    2.6235005   -2.4511817 
Te   -2.2231191    2.6009561    1.2092298 
C    -4.5532506    3.7812608   -3.4495934 
C    -3.1174636    4.0803541   -3.8658098 
H    -4.3209917    1.6934199   -2.9780401 
C    -2.5669911   -4.1161448   -2.3761226 
H    -2.6573417   -2.6323967   -3.9478446 
H    -6.9300136   -1.1732813   -0.2134757 
H    -2.6588168    3.1669727   -4.2715601 
H    -6.1166843   -3.6401949    3.1575069 
B    -0.0441988   -4.1346454   -0.1846023 
H    -1.3725728   -3.8293861   -4.1706734 
H    -4.1733593   -5.0057558   -0.4080467 
O    -0.2639847   -4.4299702   -1.5129335 
H    -5.5918421    2.4749863   -2.0564662 
H    -3.0884551    4.8357854   -4.6606420 
H    -4.9960067    4.6793244   -2.9942923 
C    -3.6462843   -4.9726077   -3.0487472 
H    -4.4728418   -4.3432030   -3.3988364 
H    -4.0645828   -5.7344827   -2.3821292 
H    -3.2242779   -5.4915120   -3.9172083 
H     6.8424866    1.2454321    0.8940163 
H    -6.6116576   -0.2027758    2.0542688 
H    -2.2161010   -6.2432469    0.1493319 
