24
Energy =
Br    2.6500105    1.9292359    1.6395061 
Br    0.0021715   -0.0000125    3.6654329 
Br   -3.2795304    0.0000963    1.6392738 
B     1.2303134    0.8929380    0.7591604 
B     0.0011131   -0.0000003    1.6995823 
B    -1.5194389    0.0000056    0.7614950 
Br   -1.0119598    3.1188689    1.6346648 
Br   -2.6499642    1.9293611   -1.6394262 
Br   -2.6500062   -1.9292765   -1.6395209 
B    -0.4692461    1.4449212    0.7600692 
B    -1.2303340    0.8929515   -0.7591529 
B    -1.2303685   -0.8929349   -0.7591702 
Br    1.0119267    3.1188055   -1.6346311 
Br   -0.0020034   -0.0000663   -3.6654590 
Br    1.0120520   -3.1188174   -1.6346441 
B     0.4691783    1.4448756   -0.7600487 
B    -0.0012083   -0.0000209   -1.6996033 
B     0.4691495   -1.4449272   -0.7600706 
Br    3.2795813   -0.0000962   -1.6391594 
Br    2.6500307   -1.9291189    1.6393898 
Br   -1.0118159   -3.1189149    1.6346364 
B     1.5193856   -0.0000350   -0.7615176 
B     1.2302379   -0.8929317    0.7591302 
B    -0.4692746   -1.4449068    0.7600633 
