146
Energy =
Zn   -5.4377289   -0.3535402   -0.0502077 
N    -6.3447583   -1.9858148    0.7760290 
C    -5.7813617   -3.2225707    0.9719686 
C    -4.5090619   -3.6232687    0.5337254 
C    -3.5998219   -2.8060091   -0.1529617 
N    -3.7785903   -1.4768306   -0.4472649 
C    -2.6685216   -1.0780076   -1.1494524 
C    -2.4408533    0.2126206   -1.6428917 
C    -3.3040688    1.3055389   -1.4872880 
N    -4.5573372    1.2648015   -0.9315894 
C    -5.0487337    2.5468672   -0.9733818 
C    -6.3174048    2.9496890   -0.5316288 
C    -7.2658760    2.1051868    0.0688944 
N    -7.0750585    0.7853299    0.3950353 
C    -8.2547529    0.3399907    0.9401158 
C    -8.5000930   -0.9578117    1.4148766 
C    -7.5865961   -2.0217356    1.3615680 
C    -7.8047610   -3.3156717    1.9554661 
C    -6.6883122   -4.0555375    1.7188070 
H    -6.4896815   -5.0689123    2.0376126 
H    -8.6873057   -3.6118251    2.5044571 
C    -9.8287092   -1.2269174    2.0311310 
C   -10.7256238   -2.1124906    1.4241838 
C   -11.9660125   -2.3672162    2.0003495 
C   -12.3241098   -1.7465843    3.1943423 
C   -11.4364042   -0.8656904    3.8067816 
C   -10.1985470   -0.6043168    3.2279386 
H    -9.5036217    0.0791011    3.7090703 
H   -11.7063682   -0.3825352    4.7418229 
H   -13.2911239   -1.9493240    3.6461412 
H   -12.6554842   -3.0514619    1.5134442 
H   -10.4470988   -2.5943600    0.4905371 
C    -9.2229792    1.4056893    0.9358215 
C    -8.6114413    2.4965827    0.4009135 
H    -9.0418509    3.4716822    0.2226873 
H   -10.2452905    1.3250358    1.2768775 
C    -6.6984975    4.3751953   -0.7276128 
C    -6.9249375    5.2061156    0.3750206 
C    -7.2876274    6.5369108    0.1943298 
C    -7.4355263    7.0539224   -1.0901175 
C    -7.2146024    6.2335667   -2.1933555 
C    -6.8456172    4.9041174   -2.0142344 
H    -6.6811573    4.2620315   -2.8756376 
H    -7.3350732    6.6280223   -3.1985748 
H    -7.7232358    8.0920559   -1.2308788 
H    -7.4535440    7.1720119    1.0601623 
H    -6.8066411    4.8030419    1.3775013 
C    -4.0602881    3.4250884   -1.5468283 
C    -2.9863758    2.6562129   -1.8716974 
H    -2.0520510    2.9811994   -2.3096533 
H    -4.1670861    4.4936017   -1.6686599 
C    -1.1842426    0.4424828   -2.4098489 
N    -0.0286822    0.3812523   -1.7394276 
C     1.1075168    0.6024114   -2.4077980 
C     1.0905817    0.9400700   -3.7740764 
N    -0.0659318    0.9526609   -4.4450014 
C    -1.2046630    0.6857013   -3.7958884 
C    -2.4626375    0.6634505   -4.6091013 
H    -2.2145524    0.4994070   -5.6605160 
H    -2.9958314    1.6187286   -4.5307418 
H    -3.1474325   -0.1182043   -4.2670994 
C     2.3293286    1.2934328   -4.5388542 
H     2.0558337    1.8317142   -5.4495177 
H     3.0073655    1.9080138   -3.9387222 
H     2.8825742    0.3917591   -4.8289334 
C     2.3866085    0.5034332   -1.6497151 
C     2.6476643    1.4914673   -0.6927761 
N     3.7826212    1.5749243    0.0746478 
C     3.6338195    2.6793880    0.8762687 
C     4.5765492    3.1544462    1.7997443 
C     5.8557935    2.6099720    1.9974805 
N     6.3935472    1.5526242    1.3057862 
C     7.6558061    1.3536258    1.8089905 
C     8.5548141    0.3559619    1.4010482 
C     8.2705516   -0.6531505    0.4678128 
N     7.0637358   -0.8497661   -0.1582214 
C     7.2182827   -1.9408518   -0.9767756 
C     6.2348837   -2.4813488   -1.8219181 
C     4.9637591   -1.9273266   -2.0310839 
N     4.4988292   -0.7608720   -1.4739726 
C     3.2332659   -0.5672750   -1.9655403 
C     2.8816221   -1.6522215   -2.8441343 
C     3.9459635   -2.4983689   -2.8766431 
H     4.0291129   -3.4326509   -3.4133253 
H     1.9344798   -1.7669042   -3.3538549 
Zn    5.4330531    0.3786734   -0.0605406 
C     6.5807363   -3.7233819   -2.5655821 
C     6.8218114   -4.9171607   -1.8767432 
C     7.1516676   -6.0780162   -2.5686759 
C     7.2514588   -6.0608924   -3.9574809 
C     7.0156663   -4.8767196   -4.6511435 
C     6.6798589   -3.7164219   -3.9609153 
H     6.5043040   -2.7904038   -4.5022450 
H     7.0977324   -4.8539782   -5.7343186 
H     7.5126442   -6.9668881   -4.4971626 
H     7.3294256   -6.9991764   -2.0205618 
H     6.7409687   -4.9314062   -0.7929050 
C     8.5673989   -2.4345669   -0.8768380 
C     9.2187781   -1.6359136    0.0108659 
H    10.2544729   -1.6952433    0.3135142 
H     8.9723417   -3.2667782   -1.4348515 
C     9.9123336    0.3670425    2.0124445 
C    10.7915967    1.4262724    1.7631837 
C    12.0611578    1.4394248    2.3318689 
C    12.4666610    0.3983308    3.1629672 
C    11.5967061   -0.6583426    3.4193623 
C    10.3293750   -0.6764774    2.8455485 
H     9.6483868   -1.4986877    3.0492186 
H    11.9040550   -1.4709419    4.0719050 
H    13.4569967    0.4107017    3.6095341 
H    12.7363969    2.2645503    2.1225368 
H    10.4759453    2.2366323    1.1112002 
C     7.9140041    2.3049052    2.8590047 
C     6.8004611    3.0765284    2.9795628 
H     6.6278440    3.8784986    3.6830218 
H     8.8195032    2.3584870    3.4465941 
C     4.1913512    4.3311511    2.6265739 
C     4.8456646    5.5578432    2.4733449 
C     4.4758066    6.6560295    3.2432282 
C     3.4522585    6.5414846    4.1804980 
C     2.7977984    5.3230336    4.3416719 
C     3.1619875    4.2257931    3.5679513 
H     2.6535496    3.2735813    3.6954795 
H     2.0014673    5.2244303    5.0742573 
H     3.1648909    7.3991062    4.7823445 
H     4.9863765    7.6054244    3.1070942 
H     5.6408853    5.6486311    1.7378887 
C     2.3703842    3.3147622    0.5960848 
C     1.7637314    2.5842390   -0.3767141 
H     0.8018977    2.7682217   -0.8339736 
H     2.0033486    4.2131832    1.0714563 
C    -1.7712006   -2.1925221   -1.3162359 
C    -2.3437092   -3.2581410   -0.6965349 
H    -1.9574817   -4.2650513   -0.6265604 
H    -0.8236426   -2.1661537   -1.8343716 
C    -4.0916096   -5.0249246    0.8131056 
C    -3.0381511   -5.2846437    1.6959566 
C    -2.6415588   -6.5923841    1.9564425 
C    -3.2873251   -7.6568642    1.3330663 
C    -4.3350799   -7.4069503    0.4504660 
C    -4.7374271   -6.0999362    0.1942169 
H    -5.5514349   -5.9039329   -0.4989416 
H    -4.8390305   -8.2323609   -0.0447415 
H    -2.9742874   -8.6777488    1.5333631 
H    -1.8262678   -6.7794509    2.6498944 
H    -2.5357289   -4.4528498    2.1829201 
