126
Energy =
C    -1.3460118    5.1338133   -0.1069940 
C    -2.3383332    5.1625035    1.0559393 
C    -2.9211657    3.7673220    1.2648325 
C    -3.5170663    3.2338149   -0.0279785 
H    -4.4254045    3.8004043   -0.2768013 
C    -2.5069313    3.3297014   -1.1770464 
C    -3.0897934    2.9827949   -2.5322354 
H    -2.3050907    3.1103834   -3.2917212 
H    -3.3958003    1.9330086   -2.5277343 
O    -4.2508714    3.7501828   -2.8665196 
H    -3.9839114    4.6782548   -2.9085962 
H    -1.6777952    2.6325961   -0.9814203 
O    -1.9982347    4.6778343   -1.2806606 
O    -3.8370118    1.8559275    0.2052865 
C    -5.1221211    1.3695086   -0.1305317 
H    -5.8049875    2.1918793   -0.3757049 
O    -5.0828070    0.5367797   -1.2779666 
C    -4.1719980   -0.5778702   -1.1549211 
C    -4.1970241   -1.3042583   -2.4844846 
H    -3.4385062   -2.0915964   -2.4731775 
H    -3.9380625   -0.5870967   -3.2767325 
O    -5.4487935   -1.9395391   -2.7636697 
H    -6.1233806   -1.2482486   -2.8032017 
C    -4.5692386   -1.4560974    0.0372400 
C    -4.7037644   -0.6268110    1.3049586 
C    -5.6245263    0.5686020    1.0705247 
O    -5.7290105    1.3882600    2.2316494 
H    -4.9602318    1.9906031    2.2488175 
H    -6.6348843    0.2056242    0.8433185 
H    -3.7061595   -0.2610156    1.5920301 
O    -5.2140263   -1.4883772    2.3310138 
H    -5.1849688   -0.9943491    3.1622373 
O    -3.5309243   -2.4132727    0.2833638 
C    -3.7581324   -3.7807237    0.0037574 
C    -3.2540398   -4.5691073    1.2123202 
C    -1.7500370   -4.3555318    1.3682295 
C    -1.0204567   -4.6884226    0.0760103 
H    -1.0502192   -5.7741325   -0.0925996 
C    -1.6464067   -3.9524493   -1.1141211 
C    -1.0849381   -4.3725498   -2.4574734 
H    -1.6216447   -3.8245317   -3.2451302 
H    -0.0288454   -4.0916596   -2.5028786 
O    -1.1453699   -5.7840212   -2.6884823 
H    -2.0776317   -6.0376269   -2.7131214 
O    -3.0684046   -4.2008169   -1.1623203 
H    -1.4616139   -2.8731116   -0.9995441 
O     0.3322545   -4.2455665    0.2479009 
C     1.4008594   -5.1075265   -0.0921834 
C     2.3690728   -5.1108730    1.0908098 
C     2.9431123   -3.7098916    1.2885828 
H     2.1327197   -3.0279106    1.5885533 
C     3.5602523   -3.1939359   -0.0015097 
C     2.5713362   -3.3139694   -1.1668123 
C     3.1777650   -2.9819434   -2.5147211 
O     4.3433448   -3.7536114   -2.8214643 
H     4.0750921   -4.6811585   -2.8645472 
H     3.4845736   -1.9325262   -2.5131860 
H     2.4065786   -3.1142739   -3.2871746 
H     1.7339548   -2.6200643   -0.9962677 
O     2.0740223   -4.6667972   -1.2598511 
H     4.4743622   -3.7616468   -0.2251780 
O     3.8720229   -1.8103634    0.2127467 
C     5.1607871   -1.3271307   -0.1163448 
C     5.6779361   -0.5456384    1.0920122 
C     4.7714894    0.6561987    1.3458294 
C     4.6353286    1.5113443    0.0941513 
H     5.5840209    2.0331579   -0.1036245 
C     4.2400216    0.6542274   -1.1146520 
C     4.3377203    1.4227516   -2.4169382 
H     5.3816343    1.7294373   -2.5828146 
O     3.8455941    0.6682802   -3.5291340 
H     4.4245328   -0.0976626   -3.6377392 
H     3.7184259    2.3209443   -2.3485309 
H     3.2084794    0.2967067   -0.9756332 
O     5.1300451   -0.4748099   -1.2491930 
O     3.5932451    2.4581384    0.3667774 
C     3.8141205    3.8350581    0.1344361 
H     4.8800188    4.0448841   -0.0167703 
O     3.1550872    4.2852315   -1.0382131 
C     1.7356194    4.0193962   -1.0399994 
C     1.0678973    4.7215530    0.1473202 
H     1.0983394    5.8115198    0.0086999 
C     1.7585144    4.3577513    1.4531218 
C     3.2663202    4.5815037    1.3505045 
H     3.4616869    5.6523195    1.2119955 
O     3.9383659    4.1867581    2.5439957 
H     4.0976929    3.2252712    2.4954745 
O     1.1818373    5.1690883    2.4858082 
H     1.4918954    4.8232807    3.3341459 
H     1.5664396    3.2958179    1.6681127 
O    -0.2878613    4.2705611    0.2645307 
C     1.2102967    4.4614213   -2.3906062 
H     0.1575198    4.1756061   -2.4710016 
O     1.2695834    5.8769293   -2.5948217 
H     2.2009113    6.1348545   -2.5934021 
H     1.7719734    3.9299524   -3.1723103 
H     1.5604172    2.9357001   -0.9549953 
H     3.7705440    0.2951688    1.6277806 
O     5.2903970    1.4968443    2.3839047 
H     5.2718513    0.9843564    3.2041913 
H     6.6911117   -0.1917664    0.8630572 
O     5.7803454   -1.3780001    2.2438189 
H     4.9991597   -1.9644185    2.2682320 
H     5.8367884   -2.1507746   -0.3758549 
O     3.9686719   -3.7073663    2.2909656 
H     3.5479215   -3.9251497    3.1345342 
O     1.7357525   -5.5889832    2.2741558 
H     0.8366024   -5.2091441    2.3106137 
H     3.1875649   -5.8053970    0.8635348 
H     1.0395487   -6.1192588   -0.3132883 
H    -1.5614525   -3.3000735    1.6160089 
O    -1.2076301   -5.1939694    2.3978036 
H    -1.5597232   -4.8793964    3.2419654 
O    -3.9599326   -4.2063470    2.3960880 
H    -4.0984386   -3.2400716    2.3801522 
H    -3.4506750   -5.6339545    1.0352675 
H    -4.8208712   -3.9748503   -0.1854850 
H    -5.5194200   -1.9681354   -0.1699733 
H    -3.1479819   -0.2055779   -0.9961256 
H    -2.1177720    3.0875539    1.5880901 
O    -3.9641434    3.7802505    2.2487425 
H    -3.5574265    4.0079804    3.0965333 
H    -3.1483410    5.8568982    0.7996260 
O    -1.7284484    5.6592089    2.2436403 
H    -0.8421929    5.2554763    2.3220283 
H    -0.9740292    6.1395672   -0.3371090 
