194
Energy =
O     4.3374578   -3.9092037   -1.9386842 
C     5.6353693   -3.7572011   -2.5075649 
O     5.6110110   -2.7706205   -3.5195538 
C     5.2659791   -1.4395375   -3.0697101 
C     6.2719674   -0.9820320   -2.0111991 
C     6.2895436   -1.9810532   -0.8687128 
O     7.2559979   -1.5415396    0.0910692 
H     7.2658896   -2.1908014    0.8088672 
C     6.6282216   -3.3667928   -1.4085291 
O     6.6740471   -4.3392916   -0.3721642 
H     5.7611968   -4.5066187   -0.0603451 
H     7.6307184   -3.3389623   -1.8552080 
H     5.2898561   -2.0061897   -0.4056256 
H     7.2728669   -0.9149250   -2.4597688 
O     5.8734446    0.2990930   -1.4986869 
C     6.8312918    1.3385792   -1.5522201 
O     6.6269492    2.2038018   -2.6567855 
C     5.3724365    2.9214565   -2.6478678 
C     5.3582673    3.7370475   -3.9252125 
O     5.4005674    2.9094560   -5.0922125 
H     6.2051957    2.3750740   -5.0400792 
H     4.4274811    4.3064875   -3.9795137 
H     6.2018718    4.4446549   -3.9153868 
C     5.2885635    3.7877949   -1.3872149 
C     5.4316700    2.8995686   -0.1610676 
O     5.4141743    3.7419476    0.9978023 
H     5.4936704    3.1666454    1.7714344 
C     6.7487068    2.1311489   -0.2466992 
O     6.9373263    1.2985523    0.8953950 
H     6.7107211    0.3836552    0.6470375 
H     7.5683536    2.8628170   -0.2574850 
H     4.5846619    2.1947989   -0.1250965 
H     6.0976038    4.5334905   -1.3970065 
O     4.0164272    4.4447803   -1.3082920 
C     3.9833506    5.8522780   -1.4773139 
O     3.4662131    6.2213764   -2.7418532 
C     2.1093357    5.7854901   -2.9783037 
C     1.7797159    6.1750529   -4.4055168 
O     1.7775604    7.5895634   -4.6217371 
H     2.6723689    7.9107158   -4.4479044 
H     0.7781009    5.8116999   -4.6534390 
H     2.4982453    5.6799006   -5.0744966 
C     1.1819224    6.4081214   -1.9296868 
C     1.6535029    6.0384474   -0.5320285 
O     0.8336123    6.7471490    0.4075912 
H     1.0037126    6.3894517    1.2892242 
C     3.1190732    6.4391824   -0.3616609 
O     3.6212272    6.0842478    0.9231420 
H     3.9651879    5.1720792    0.8763334 
H     3.1828047    7.5326606   -0.4365829 
H     1.5395827    4.9526545   -0.3848357 
O    -0.1524822    5.9043462   -2.0919767 
C    -1.0956688    6.7550866   -2.7414902 
O    -1.7414180    6.0576958   -3.7848038 
C    -2.5141745    4.9079666   -3.3724497 
C    -3.0678585    4.3067499   -4.6493513 
O    -4.0157931    5.1500125   -5.3103817 
H    -3.5527098    5.9542334   -5.5810793 
H    -2.2254721    4.0704575   -5.3146771 
H    -3.5847092    3.3746481   -4.4137122 
C    -3.5939423    5.3196247   -2.3651289 
C    -2.9702718    6.0854356   -1.2104845 
O    -4.0194534    6.5611269   -0.3649728 
H    -3.6003939    7.0766241    0.3388473 
C    -2.1294871    7.2482921   -1.7302110 
O    -1.5215217    7.9629358   -0.6594472 
H    -0.8320125    7.3936893   -0.2625851 
H    -2.7878246    7.9589896   -2.2465383 
H    -2.3161610    5.3946799   -0.6506391 
H    -4.3482298    5.9455960   -2.8612466 
O    -4.2020569    4.1158048   -1.8582156 
C    -5.6163390    4.0637430   -1.8343889 
O    -6.1556914    3.4595276   -2.9990609 
C    -5.7778770    2.0809163   -3.2082920 
C    -6.1916916    1.2252924   -2.0073748 
C    -5.5891492    1.8175223   -0.7387890 
O    -5.9996747    1.0557614    0.4091861 
H    -5.2102384    0.6370084    0.7801053 
C    -6.0236867    3.2710384   -0.5854259 
O    -5.4975574    3.8657175    0.5950809 
H    -4.5539162    4.0226896    0.4370524 
H    -7.1157316    3.3188962   -0.4960293 
H    -4.4951906    1.7845159   -0.8207469 
H    -7.2878233    1.1975500   -1.9152411 
O    -5.6627903   -0.0997643   -2.1460055 
C    -6.5596390   -1.1298423   -2.5526931 
O    -5.9757522   -1.8732931   -3.6020508 
C    -4.7603976   -2.5695392   -3.2413115 
C    -4.2334658   -3.2160158   -4.5048348 
O    -5.0645757   -4.2719652   -4.9968298 
H    -5.9087249   -3.8813143   -5.2595892 
H    -4.0989061   -2.4359976   -5.2674055 
H    -3.2561637   -3.6552977   -4.2898051 
C    -5.0645157   -3.5626199   -2.1164500 
C    -5.6371762   -2.8143935   -0.9248955 
O    -5.9649741   -3.7763933    0.0849181 
H    -6.2618220   -3.2877932    0.8652926 
C    -6.8799183   -2.0418411   -1.3647481 
O    -7.4606579   -1.3127045   -0.2902845 
H    -6.8695336   -0.5627711   -0.0728494 
H    -7.6380073   -2.7639396   -1.6957855 
H    -4.8791459   -2.1146263   -0.5357461 
H    -5.7981671   -4.3000315   -2.4707364 
O    -3.8591946   -4.2260934   -1.7079169 
C    -3.7959999   -5.6325976   -1.8752382 
O    -2.9896435   -6.0053804   -2.9793047 
C    -1.5976040   -5.6308664   -2.8767119 
C    -0.9503673   -6.0921902   -4.1672465 
O    -1.5037700   -5.4353755   -5.3122525 
H    -2.4493986   -5.6379545   -5.3335506 
H    -1.0506025   -7.1849382   -4.2565565 
H     0.1125314   -5.8414564   -4.1462759 
C    -0.9834943   -6.2881240   -1.6355465 
C    -1.7694161   -5.8530097   -0.4077949 
O    -1.2077382   -6.5051210    0.7373390 
H    -1.6494954   -6.1442164    1.5186128 
C    -3.2350699   -6.2429229   -0.5895036 
O    -4.0180618   -5.8948289    0.5476166 
H    -4.4015958   -5.0088570    0.4020335 
H    -3.2903615   -7.3350892   -0.6927560 
H    -1.6809578   -4.7624056   -0.2908110 
O     0.3795031   -5.8786452   -1.4651818 
C     1.3928389   -6.8500664   -1.6514785 
O     2.0780277   -6.6695524   -2.8788782 
C     2.7324493   -5.3891811   -3.0059037 
C     3.3053976   -5.3446980   -4.4087727 
O     4.3113688   -6.3362493   -4.6405463 
H     3.8963255   -7.2015905   -4.5240458 
H     2.4780243   -5.4553186   -5.1245045 
H     3.7726031   -4.3700291   -4.5771028 
C     3.7798244   -5.2319667   -1.8987130 
C     3.1344213   -5.4155119   -0.5352438 
O     4.1807702   -5.4044616    0.4484532 
H     3.7750075   -5.3034500    1.3195871 
C     2.3726783   -6.7381164   -0.4840125 
O     1.7100996   -6.9140442    0.7644135 
H     0.8412808   -6.4714810    0.7111909 
H     3.0977507   -7.5569058   -0.5782902 
H     2.4418247   -4.5816911   -0.3468368 
H     4.5718495   -5.9832011   -2.0269100 
H     1.9916560   -4.5779083   -2.9191242 
H     0.9635160   -7.8584133   -1.6975478 
H    -1.0377181   -7.3829049   -1.7377585 
H    -1.5133466   -4.5357440   -2.7925714 
H    -4.7912204   -6.0390970   -2.0913416 
H    -4.0034089   -1.8463122   -2.8992047 
H    -7.4822940   -0.7001353   -2.9618553 
C    -6.4536537    1.6614654   -4.4982268 
O    -5.9628144    2.3958513   -5.6247931 
H    -6.1221181    3.3339895   -5.4515143 
H    -7.5426996    1.7836699   -4.3963152 
H    -6.2351786    0.6086861   -4.6982288 
H    -4.6859618    2.0036776   -3.3215079 
H    -6.0437493    5.0725944   -1.8076789 
H    -1.8535316    4.1625345   -2.9030657 
H    -0.5857062    7.6011838   -3.2168741 
H     1.1910264    7.5026364   -2.0301893 
H     2.0478476    4.6879440   -2.9069211 
H     4.9971633    6.2690523   -1.4380766 
H     4.5342862    2.2076266   -2.6520491 
H     7.8394648    0.9292177   -1.6882290 
C     5.2333439   -0.5621016   -4.3040697 
O     6.5151317   -0.3857680   -4.9152826 
H     6.8051249   -1.2484790   -5.2404331 
H     4.8782672    0.4316065   -4.0208044 
H     4.5159883   -0.9903555   -5.0183203 
H     4.2551502   -1.4424986   -2.6324889 
H     5.9492527   -4.6850254   -3.0002879 
Br    3.3460746   -0.9934233    1.5557633 
B     1.4886011   -0.5598662    1.9754064 
B     0.1055922   -1.3137234    1.1339457 
Br    0.3476784   -2.6251129   -0.2899604 
B     0.4654544    0.4192066    0.8763256 
Br    1.1426025    1.1011358   -0.8254483 
B     1.0033635    1.0936850    2.4334379 
Br    2.3063546    2.5739946    2.5002663 
B    -0.3421939    0.9747550    3.5828382 
Br   -0.6066993    2.3244847    5.0146771 
B     0.9818430   -0.2102782    3.6479455 
Br    2.2536367   -0.2741151    5.1543631 
B     0.4262601   -1.7062544    2.8491991 
Br    1.0417423   -3.4678342    3.4259549 
B    -1.2514035   -1.4354401    2.2939981 
Br   -2.5681384   -2.8779055    2.2241278 
B    -1.2252429   -0.1247535    1.0783810 
Br   -2.5163343   -0.0983588   -0.3892659 
B    -0.6691724    1.3738370    1.8768317 
Br   -1.2955555    3.1484349    1.3489087 
B    -1.7161461    0.2239696    2.7513624 
Br   -3.5775685    0.6941850    3.2172370 
B    -0.7027693   -0.7477984    3.8432806 
Br   -1.3663307   -1.4229668    5.5748682 
Na    2.4459338    2.6604384    5.4492815 
Na   -3.1018605    0.8859581    6.1647155 
