70
Energy =
C    -1.2020478   -0.5260858   -3.4149223 
C    -1.2020523    3.2187765    1.2572703 
C     1.2020271   -0.5261332   -3.4149214 
C     1.2021808    3.2187317    1.2572683 
C     1.2018950   -1.5820928    3.0717281 
C     1.2020582   -3.3428795    0.8743683 
C    -1.2021867   -3.3428194    0.8743687 
C    -1.2019608   -1.5820529    3.0717443 
C     1.2019818   -1.8647286   -2.9086524 
C     1.2022086    2.4333174    2.4541536 
C    -1.2020560   -1.8646817   -2.9086526 
C    -1.2021101    2.4333658    2.4541573 
C     1.2018391   -0.2012380    3.4489412 
C    -1.2022477   -3.4105337   -0.5554030 
C    -1.2018430   -0.2011925    3.4489433 
C     1.2021064   -3.4105697   -0.5554044 
C    -1.2018747    3.0854967   -1.5555476 
C    -1.2018529    2.1901346   -2.6722060 
C     1.2019359    2.1900885   -2.6722084 
C     1.2019885    3.0854502   -1.5555522 
C    -2.4312283    0.1032707   -3.0043256 
C    -2.4310247    2.9544983    0.5535974 
C     2.4312321    0.1031759   -3.0043265 
C     2.4311388    2.9544026    0.5535929 
C    -2.4311150    0.3862090    2.9811959 
C     2.4311348    0.3861150    2.9811920 
C    -2.4313565   -2.8249387   -1.0267034 
C     2.4312470   -2.8250405   -1.0267095 
C    -2.4311294   -1.8494914    2.3697716 
C     2.4310562   -1.8495840    2.3697656 
C    -2.4312325   -2.7158361    1.2886177 
C     2.4311241   -2.7159282    1.2886127 
C     2.4311526    1.6822639    2.4914076 
C    -2.4310851    1.6823610    2.4914163 
C     2.4312558   -2.0645241   -2.1846991 
C    -2.4313318   -2.0644219   -2.1846903 
C     2.4311484    2.8890893   -0.8303253 
C    -2.4308092    1.4393323   -2.6384026 
C     2.4308625    1.4392362   -2.6383999 
C    -2.4310467    2.8891932   -0.8303240 
C    -3.2068077   -0.8507166   -2.2508563 
C    -3.2060787    2.0112518    1.3207291 
C     3.2061625    2.0111322    1.3207261 
C     3.2067706   -0.8508416   -2.2508567 
C     3.2063009    1.8774329   -1.5047037 
C    -3.2062178    1.8775488   -1.5046959 
C     3.2064313   -2.4033050    0.1136568 
C    -3.2065308   -2.4031876    0.1136620 
C    -3.2063763   -0.6346280    2.3209559 
C     3.2063532   -0.6347521    2.3209475 
C     3.9503224    0.9593257   -0.7687853 
C    -3.9502692    0.9594727   -0.7687775 
C     3.9504996   -1.2280860    0.0584035 
C     3.9503586   -0.3242018    1.1861265 
C    -3.9505484   -1.2279354    0.0584078 
C    -3.9503621   -0.3240497    1.1861292 
C     3.9505039    1.0278327    0.6749889 
C     3.9504427   -0.4348732   -1.1499704 
C    -3.9504659    1.0279850    0.6749946 
C    -3.9504637   -0.4347227   -1.1499688 
C    -0.0000453   -2.2528703    2.7422624 
C    -0.0000617   -3.1677377    1.6005457 
C     0.0000306    1.6212459   -3.1568420 
C     0.0000640    3.4346835   -0.8946849 
C     0.0000686    3.5033895    0.5666463 
C     0.0000040    0.2101140   -3.5433156 
C     0.0000125    0.5439338    3.5065160 
C    -0.0000691   -3.3047930   -1.2948366 
C     0.0000394    1.9128296    2.9902153 
C    -0.0000506   -2.5012138   -2.5173564 
