16
Energy =
C    -0.7661240    1.1779329   -0.1144906 
C     0.6252165    1.2489200   -0.1153739 
C     1.3959910    0.0650105   -0.1165103 
C     0.7686598   -1.1788221   -0.1166155 
C    -0.6226881   -1.2498160   -0.1164655 
C    -1.3934611   -0.0659006   -0.1154833 
C    -2.8141662   -0.1330362   -0.1163156 
N    -3.9694475   -0.1819081   -0.1181351 
C    -1.2596598   -2.5216803   -0.1172225 
N    -1.7733683   -3.5576020   -0.1187059 
C     2.8166738    0.1323257   -0.1180634 
N     3.9719810    0.1817417   -0.1172330 
C     1.2621129    2.5208073   -0.1152499 
N     1.7753395    3.5570008   -0.1135588 
H    -1.3579207    2.0861988   -0.1136790 
H     1.3604457   -2.0870956   -0.1174010 
