37
Energy =
C    -4.0216365   -1.2135967    0.0037950 
C    -5.4044501   -1.2175279    0.0000588 
C    -6.0818965   -0.0008779   -0.0026571 
C    -5.4066529    1.2169838   -0.0023799 
C    -4.0238752    1.2154594    0.0011545 
C    -3.3083161    0.0016058    0.0040359 
C    -1.8939662    0.0033797    0.0046799 
C    -0.6761229    0.0042494    0.0108163 
I     1.3865495   -0.0004346    0.0109010 
N     4.0266437   -0.0014683   -0.0019684 
C     4.5139253    1.0743038   -0.8940435 
H     4.1267792    0.8688583   -1.8986556 
H     4.0668797    2.0161630   -0.5559732 
C     6.0657303    1.1437041   -0.8844302 
H     6.4071274    2.1046739   -0.4821064 
H     6.4609343    1.0574660   -1.9030912 
C     6.5960118   -0.0034026   -0.0133375 
C     6.0651997   -1.3329123   -0.5664117 
H     6.4671509   -2.1701336    0.0157830 
H     6.4000168   -1.4661946   -1.6018505 
C     4.5139097   -1.3107868   -0.4901744 
H     4.1341309   -2.0785432    0.1935697 
H     4.0606647   -1.4910536   -1.4716445 
C     6.0750878    0.1806784    1.4188165 
H     6.4770423    1.1047970    1.8498934 
H     6.4174466   -0.6485556    2.0489959 
C     4.5230897    0.2310399    1.3729953 
H     4.1433901    1.2059120    1.6998137 
H     4.0767303   -0.5305547    2.0225332 
H     7.6917846   -0.0043029   -0.0179593 
H    -3.4784687    2.1532594    0.0015095 
H    -5.9640327    2.1462438   -0.0047313 
N    -7.5468662   -0.0020786   -0.0052230 
O    -8.1214005   -1.0881518   -0.0126529 
O    -8.1231587    1.0830905   -0.0098397 
H    -5.9602315   -2.1477492   -0.0003858 
H    -3.4746591   -2.1504581    0.0063428 
