24
Energy =
Se    0.2332821    1.4314505    0.7210932 
C     1.6854655    0.7293123   -0.4179577 
C     2.5398120   -0.2608971    0.3411624 
N     3.5919245   -0.8294642   -0.5677766 
H     4.1749277   -0.0857327   -0.9568354 
H     4.1987164   -1.4703318   -0.0538238 
H     3.1202384   -1.3592218   -1.3546928 
H     1.9419830   -1.1032353    0.7001072 
H     3.0413382    0.2100774    1.1895315 
H     1.2351922    0.2840233   -1.3091944 
H     2.2553128    1.6200513   -0.7057122 
Se   -1.1291440   -0.4708400    0.8633205 
C    -2.1973914   -0.2878194   -0.7987197 
C    -3.0794987    0.9369324   -0.8322792 
N    -4.0872519    0.9083328    0.2711805 
H    -4.6437173    1.7642947    0.2764284 
H    -3.6128510    0.8292850    1.1759059 
H    -4.7250743    0.0703158    0.1442476 
H    -2.4934392    1.8553400   -0.7387657 
H    -3.6317316    0.9676921   -1.7770463 
H    -2.7863733   -1.2114756   -0.8409379 
H    -1.5045108   -0.2678087   -1.6421454 
Cl    1.9123087   -2.3506455   -2.6718490 
Cl   -5.7741603   -1.6070355   -0.3223182 
