28
Energy =
C     2.3317839   -1.3232219   -0.2394677 
N     3.2869836   -0.3843531   -0.0428306 
C     2.9546017    0.9048130    0.1874534 
C     1.6346267    1.2863723    0.2403182 
C     0.6341017    0.3310585    0.0754551 
C     0.9999923   -0.9901987   -0.1905902 
H     0.2555685   -1.7619832   -0.3396036 
C    -0.7948217    0.7856794    0.1056465 
O    -1.1083143    1.9536558    0.2195429 
O    -1.6427924   -0.2215145   -0.0939911 
C    -3.0606876    0.1142011   -0.0189641 
C    -3.8444444   -1.1706620   -0.1726925 
C    -5.3468511   -0.8959979   -0.1077548 
H    -5.9140132   -1.8250741   -0.2157115 
H    -5.6595234   -0.2153062   -0.9074987 
H    -5.6237157   -0.4417866    0.8501331 
H    -3.5860443   -1.6398725   -1.1299170 
H    -3.5517592   -1.8664510    0.6228657 
H    -3.2914410    0.8329071   -0.8142664 
H    -3.2452352    0.5919973    0.9503734 
H     1.3796444    2.3218386    0.4317907 
H     3.7733254    1.6006919    0.3278987 
C     4.7067480   -0.7944239   -0.0805320 
H     4.9024081   -1.4751998    0.7513810 
H     5.3352412    0.0905662    0.0096390 
H     4.9067016   -1.2972638   -1.0290484 
H     2.6812130   -2.3326322   -0.4269049 
Cl   -0.1007338   -0.0847556    3.0035443 
