234
Energy =
C    -2.0630560   -4.2197585    1.9609811 
C    -1.0311239   -4.9562000    2.5395967 
C    -1.1183736   -5.2778710    3.8935506 
C    -2.2037411   -4.8817539    4.6664358 
C    -3.2141822   -4.1392926    4.0630596 
C    -3.1596828   -3.7995509    2.7130434 
H    -3.9424486   -3.2074505    2.2564132 
O    -4.2377328   -3.7571164    4.8959847 
C    -5.2250173   -2.9072647    4.4122137 
C    -5.1509852   -1.5614785    4.7488328 
C    -6.2034716   -0.7336003    4.3738938 
C    -7.2979603   -1.2165998    3.6693937 
C    -7.3366378   -2.5683576    3.3340656 
C    -6.3043100   -3.4250234    3.7051227 
H    -6.3356925   -4.4823974    3.4600122 
H    -8.1884374   -2.9606366    2.7861924 
H    -8.1052420   -0.5446442    3.3940955 
C    -5.5207959    1.5081114    4.0100687 
C    -5.1099759    1.2279979    2.7092030 
C    -4.4580963    2.2233036    1.9828834 
C    -4.1994529    3.4687935    2.5468759 
C    -4.6231054    3.7150837    3.8514376 
C    -3.3530827    5.7035046    4.0528360 
C    -3.5681645    6.8908958    3.3663038 
C    -2.4737268    7.6955973    3.0539318 
C    -1.1863092    7.3280108    3.4317697 
C    -1.0081274    6.1354040    4.1253653 
C    -2.0753491    5.3026402    4.4344692 
O     0.2423103    5.8119397    4.6381297 
C     1.1821102    5.2319708    3.8221641 
C     2.3791094    4.8956962    4.4456447 
C     3.3658077    4.2653560    3.6962350 
C     3.1803358    3.9730123    2.3457855 
C     1.9727841    4.3282236    1.7463363 
C     0.9635110    4.9595723    2.4730464 
H     0.0222392    5.2129025    2.0021454 
C     1.6535723    3.8019876    0.3670632 
O     0.7224814    4.6582761   -0.2912033 
C    -0.3000866    3.9601340   -0.9230282 
C    -1.5301346    3.9110231   -0.2849295 
C    -2.5547202    3.1576154   -0.8393134 
C    -2.3856505    2.4591740   -2.0365699 
C    -1.1372355    2.5428504   -2.6561696 
C    -0.0813724    3.2919875   -2.1322578 
C     1.2819914    3.3465198   -2.8034421 
C     2.1569018    2.2313623   -2.2512609 
C     2.2020963    0.9602988   -2.8305851 
C     2.9554831   -0.0880506   -2.2977652 
C     3.6820005    0.1725921   -1.1304690 
C     3.6674494    1.4229747   -0.5308086 
C     2.8956913    2.4350497   -1.0824329 
O     2.8443428    3.6458987   -0.4003502 
H     4.2249637    1.5936499    0.3854961 
O     4.4243714   -0.8211215   -0.5062081 
C     3.6392863   -1.7320970    0.2569204 
C     4.3271119   -2.0327681    1.5664937 
C     4.0507668   -3.2325502    2.2194298 
C     4.5899372   -3.4440002    3.4863823 
C     5.6340421   -1.2952118    3.4349997 
C     5.1100378   -1.0501164    2.1671376 
H     5.3146650   -0.1189851    1.6535439 
C     6.4185602    0.9319556    3.6668250 
C     5.3990403    1.7565366    4.1309125 
C     5.4485834    3.1061354    3.8043446 
C     6.4681023    3.6311956    3.0186047 
C     7.4667505    2.7778850    2.5579962 
C     7.4536813    1.4229691    2.8822456 
H     8.2370097    0.7540443    2.5390465 
H     8.2726921    3.1749688    1.9477501 
H     6.4819490    4.6916873    2.7857953 
O     4.5148399    3.9571873    4.3839164 
H     4.6048916    1.3631026    4.7591427 
C     3.3681949   -5.4596703    3.7885075 
C     3.6655823   -6.5628138    2.9988267 
C     2.6482459   -7.4647834    2.6953930 
C     1.3565010   -7.2736701    3.1786586 
C     1.0938948   -6.1579700    3.9643732 
C     2.0850691   -5.2340958    4.2740550 
H     1.8714942   -4.3774394    4.9064113 
O    -0.1565436   -6.0061961    4.5531752 
H     0.5633315   -7.9821161    2.9594006 
H     2.8682419   -8.3344332    2.0832743 
H     4.6778697   -6.7138535    2.6362976 
H     3.4360456   -3.9875034    1.7454819 
O     3.4206106   -2.9423485   -0.4615916 
C     2.1682835   -3.0181129   -1.0550144 
C     1.2021875   -3.7697344   -0.4032661 
C    -0.0814067   -3.8263021   -0.9250266 
C    -0.4163030   -3.1663915   -2.1104601 
C     0.5853154   -2.4234462   -2.7398167 
C     1.8861303   -2.3321288   -2.2405460 
C     2.9616611   -1.4831997   -2.9031535 
H     0.3396951   -1.8944552   -3.6563222 
C    -1.8442590   -3.2203426   -2.6338442 
C    -2.6533048   -2.1025805   -1.9933746 
C    -2.7624866   -0.8353552   -2.5716107 
C    -3.4568285    0.2176109   -1.9703719 
C    -4.0584274   -0.0336114   -0.7323151 
C    -3.9792047   -1.2815422   -0.1315606 
C    -3.2670697   -2.2978613   -0.7516406 
O    -3.1534077   -3.5043889   -0.0695577 
C    -1.8874301   -3.6723081    0.5647845 
O    -1.0386523   -4.5238551   -0.1990271 
H    -1.4088095   -2.6823748    0.6430558 
H    -4.4395903   -1.4483690    0.8377087 
O    -4.7402500    0.9601453   -0.0415846 
C    -3.8921534    1.8925107    0.6234606 
O    -3.7491630    3.0878992   -0.1372905 
H    -2.8981207    1.4338409    0.7503807 
C    -3.5195356    1.6062759   -2.5893747 
H    -2.2771610   -0.6562464   -3.5257887 
C    -1.9356769   -3.2312500   -4.1645245 
H    -2.2736237   -4.1626057   -2.2714225 
H     1.4391168   -4.2720854    0.5302142 
H     2.6624227   -1.2656098    0.4666230 
H     1.6176815    0.7777041   -3.7275599 
H    -0.9779050    1.9990179   -3.5821408 
H    -1.6794625    4.4223271    0.6614003 
H     1.1856021    2.8108013    0.4843354 
H     3.9476984    3.4638872    1.7763884 
H     2.5311719    5.1004925    5.5005940 
H    -0.3314797    7.9593244    3.2084651 
H    -2.6298789    8.6274964    2.5183352 
H    -4.5762785    7.1797058    3.0855195 
H    -3.6890573    4.2370249    1.9790072 
H    -5.2995483    0.2589547    2.2644170 
H    -2.2515824   -5.1257131    5.7229286 
H    -0.1751753   -5.2620882    1.9513191 
H    -2.9970258   -3.2300283   -4.4448749 
C    -1.2512089   -4.4589130   -4.7833956 
H    -1.4995316   -2.3248328   -4.5993807 
H    -4.4531171    2.0627652   -2.2371261 
C    -3.5618380    1.5770341   -4.1215769 
H     1.7457222    4.2921328   -2.4963461 
C     1.1798663    3.3525401   -4.3329506 
C     2.8862417   -1.4769301   -4.4353752 
H     3.9218261   -1.9338810   -2.6242512 
H    -4.3687830    0.9010967   -4.4328723 
H    -2.6357946    1.1637284   -4.5371919 
C    -3.8010758    2.9650145   -4.7334727 
H     0.4824717    4.1485178   -4.6249763 
H     0.7531352    2.4150879   -4.7072552 
C     2.5288496    3.5909639   -5.0258603 
H     3.6786180   -0.8150654   -4.8084823 
H     1.9371981   -1.0582247   -4.7886888 
C     3.0649321   -2.8755276   -5.0516684 
C    -5.2881362    2.7502136    4.5969771 
C     5.3857790   -2.4865834    4.1082537 
O    -4.4490287    4.9458731    4.4467790 
O     4.3924141   -4.6088993    4.1904408 
H    -4.3069910   -1.1722146    5.3109324 
O     6.4495874   -0.3949420    4.0807572 
O    -6.1885784    0.5934328    4.7900831 
H    -1.9199502    4.3810823    4.9880244 
H     5.7928268   -2.6614433    5.0990532 
H    -5.6078930    2.9534100    5.6140056 
C     4.3804660   -3.5096287   -4.6797099 
C     4.4517372   -4.5032850   -3.6995387 
H     3.5362415   -4.8513743   -3.2251028 
C     5.6779045   -5.0474877   -3.3214169 
H     5.7129039   -5.8188273   -2.5560516 
C     6.8540547   -4.6069560   -3.9229960 
H     7.8108514   -5.0329354   -3.6329333 
C     6.7949591   -3.6192176   -4.9055278 
H     7.7072321   -3.2750772   -5.3863960 
C     5.5689367   -3.0753418   -5.2773105 
H     5.5300493   -2.3052294   -6.0455496 
H     2.9981172   -2.7778748   -6.1422540 
H     2.2422685   -3.5272691   -4.7339048 
C     2.3699080    3.5255772   -6.5212438 
C     2.4331234    2.2957568   -7.1849782 
H     2.6593463    1.3946779   -6.6175318 
C     2.2123915    2.2136079   -8.5570887 
H     2.2702395    1.2500939   -9.0570636 
C     1.9231366    3.3638010   -9.2891244 
H     1.7528259    3.3017840  -10.3604897 
C     1.8595797    4.5943443   -8.6389107 
H     1.6399119    5.4972802   -9.2028696 
C     2.0803191    4.6727884   -7.2656528 
H     2.0284106    5.6365552   -6.7627986 
H     3.2488731    2.8307796   -4.6987658 
H     2.9225572    4.5704036   -4.7272474 
C    -3.7209567    2.9130205   -6.2356234 
C    -2.4781727    2.9610959   -6.8773345 
H    -1.5744075    3.0875011   -6.2834191 
C    -2.3856406    2.8501447   -8.2616950 
H    -1.4112968    2.8937391   -8.7429463 
C    -3.5384567    2.6889465   -9.0289557 
H    -3.4688098    2.6039578  -10.1099407 
C    -4.7808890    2.6417122   -8.4009088 
H    -5.6853518    2.5199551   -8.9913013 
C    -4.8695708    2.7524961   -7.0148633 
H    -5.8427080    2.7142229   -6.5293147 
H    -3.0476450    3.6657686   -4.3534790 
H    -4.7840611    3.3366672   -4.4190271 
C    -1.3187122   -4.4280262   -6.2871316 
C    -0.4776673   -3.5753957   -7.0118697 
H     0.2493976   -2.9639075   -6.4800080 
C    -0.5591887   -3.5020635   -8.3990947 
H     0.1049994   -2.8369353   -8.9451780 
C    -1.4866897   -4.2827243   -9.0881259 
H    -1.5504119   -4.2281754  -10.1715863 
C    -2.3278103   -5.1354797   -8.3779866 
H    -3.0516081   -5.7505592   -8.9067339 
C    -2.2435886   -5.2060402   -6.9883604 
H    -2.9037941   -5.8753046   -6.4403032 
H    -1.7292514   -5.3710459   -4.4057370 
H    -0.2007006   -4.4838887   -4.4664210 
C     0.2266153   -1.4080882    3.0031512 
C     0.3179193   -1.4180228    4.5457097 
C     1.5145095   -0.5650213    4.9872645 
H     1.6097591   -0.5878689    6.0812136 
H     2.4436935   -0.9776056    4.5667458 
C     1.3157765    0.8784291    4.5071854 
C     0.0187314    1.4528507    5.0951793 
H     0.0780788    1.4677423    6.1917418 
H    -0.1152062    2.4906967    4.7584555 
C    -1.1741693    0.5958009    4.6483303 
H    -2.1096130    1.0099945    5.0501249 
C    -1.2626905    0.6082234    3.1055442 
H    -1.4079362    1.6349453    2.7445567 
H    -2.1175015    0.0053623    2.7716374 
H     2.1698388    1.4995160    4.8097692 
C     1.2224173    0.8989387    2.9639969 
H     1.0727382    1.9285119    2.6225213 
H     2.1524077    0.5212429    2.5185496 
C    -0.9819383   -0.8480773    5.1316265 
H    -0.9428654   -0.8745191    6.2288283 
H    -1.8336942   -1.4673261    4.8166449 
H     0.4515238   -2.4568106    4.8766520 
H     1.1397450   -1.8349526    2.5668328 
H    -0.6248993   -2.0177584    2.6838063 
C     0.0376294    0.0348928    2.5598720 
I    -0.0976506    0.0598612    0.3059025 
