134
Energy =
Te    0.5955765    3.4583048    1.0846434 
C    -0.1329140    4.1337161   -1.6149910 
C    -0.7679819    3.9412497   -0.4058966 
C     1.2918380    3.9220397   -1.6693101 
C     1.9305741    3.5296950   -0.5090109 
C    -0.9091061    4.5490043   -2.8490617 
H     2.5880497    5.1490112   -2.8206642 
H     2.8498030    3.4312754   -3.0635039 
C    -0.0177438    5.1621847   -3.9282313 
H    -1.4111513    3.6644502   -3.2641095 
H    -1.7057975    5.2434572   -2.5618238 
C     1.1832555    4.2599907   -4.1863319 
H    -0.6048846    5.3046670   -4.8432318 
H     0.3307716    6.1551741   -3.6093886 
C     2.0678620    4.1868058   -2.9424196 
H     0.8304032    3.2548861   -4.4557365 
H     1.7778972    4.6289141   -5.0304764 
B     3.3756800    3.0686082   -0.2541630 
O     3.8984996    3.0157487    1.0222324 
C     5.2865674    2.6138694    0.9332166 
C     5.4034565    2.0577950   -0.5116868 
O     4.2491073    2.5997588   -1.2122456 
C     5.3105915    0.5567406   -0.3414297 
C     4.9388655    1.5757221    3.2478517 
C     5.2440572    0.2343553    1.0914130 
C     5.6346302    1.4587145    1.8969180 
C     7.1642702    1.4607889    2.0860968 
C     5.3221160   -0.3973276   -1.2878134 
C     4.8598963   -0.9821541    1.5093337 
C     5.2686417   -1.8296424   -0.8301155 
H     5.9061194    3.4995513    1.1209638 
H     7.6886779    1.4047371    1.1248574 
H     7.4684446    0.5965890    2.6854992 
H     7.4864886    2.3733986    2.6009106 
H     5.2100988    2.5171867    3.7395593 
H     5.2456969    0.7550572    3.9056874 
H     3.8510164    1.5428786    3.1426875 
C     4.4389859   -1.9491240    0.4440164 
H     4.7293762   -1.2255922    2.5612787 
H     5.4439810   -0.1521656   -2.3415064 
C     4.3953849   -3.4506340    0.6828788 
H     3.3980594   -1.6922873    0.1690887 
C     4.1919914   -4.0150298   -0.7489828 
C     4.6883821   -2.9308090   -1.7686834 
H     6.3077842   -2.1274175   -0.5813068 
C     5.7798824   -3.5029662   -2.6731909 
C     3.5374438   -2.4018042   -2.6257500 
H     6.2110931   -2.7137158   -3.3008376 
H     5.3768981   -4.2777201   -3.3359018 
H     6.5911620   -3.9447778   -2.0827570 
H     3.0759892   -3.2130242   -3.1979005 
H     3.9084780   -1.6551605   -3.3354045 
H     2.7529157   -1.9391221   -2.0193738 
O     2.7606565   -4.2412282   -0.8005999 
H     4.6878149   -4.9786050   -0.9160433 
O     3.2105055   -3.8259305    1.4193589 
H     5.2813390   -3.8366800    1.1968836 
B     2.2426579   -4.0895842    0.4694440 
H    -4.5828507   -2.0575174   -3.9946399 
H    -4.5665085   -0.2869611   -3.9174658 
C    -4.3876843   -1.2000346   -3.3397429 
H    -3.3349956   -1.2239784   -3.0501186 
H    -4.9553993    1.6057589   -2.4162440 
C    -5.0771526   -2.4945074   -1.2483462 
H     1.6034301   -3.7884524    3.2459844 
C    -5.3008451   -1.2426923   -2.1198471 
O    -3.6873122   -2.8945402   -1.1868923 
H    -3.3669166    1.4943850    0.8385384 
C    -4.9851084    1.2186321   -1.3993998 
C    -0.0117166   -4.0946788    1.8754170 
B    -3.3600550   -3.1235269    0.1351149 
C    -1.4343508   -3.8898317    1.7783141 
C    -1.9618930   -3.6209790    0.5289667 
C    -5.1855660   -0.5990677    0.2386439 
C     0.6506719   -4.3261260    3.2166981 
C    -5.1028201   -0.0952300   -1.1388611 
O    -4.3745251   -2.7851490    1.0072919 
H    -4.0115409    1.6648976    3.8724981 
C    -5.3838244   -2.0990847    0.2177284 
H     0.8960984   -5.3950691    3.3049097 
C    -4.5251960    3.5703771   -0.2933526 
C     0.7245996   -4.0733194    0.7075437 
C    -4.4573719    1.5759846    1.0330833 
H    -4.6589052    4.8592118    1.5475440 
H    -6.9959076   -0.3267659   -3.1264986 
C    -5.0964917    2.1533228   -0.2289579 
C    -6.7751434   -1.2425908   -2.5687995 
H    -2.2417817   -4.3592445    5.1150604 
C    -4.9180190    0.1764685    1.3047577 
H    -4.8628381   -0.2406571    2.3080958 
C    -4.1849462    3.9353677    1.1970496 
O    -3.2540033    3.6055943   -0.9853410 
C    -3.6733164    2.5185877    3.2739479 
H    -7.4586053   -1.2883754   -1.7124441 
C    -2.3197470   -3.9427447    3.0039949 
Te   -0.4974132   -3.7372287   -0.9408760 
C    -1.6231267   -4.5381071    4.2277468 
C    -0.2383163   -3.9238326    4.3918683 
H    -2.6458070   -2.9207918    3.2401934 
C    -4.5882664    2.7124484    2.0689737 
H    -3.6853343    3.4045963    3.9197615 
H    -6.3695699   -2.4199965    0.5681138 
H    -0.3265994   -2.8287271    4.4380681 
H    -6.9785363   -2.1028318   -3.2175386 
B    -2.2710335    3.9205878   -0.0775037 
H    -2.6394456    2.3325469    2.9706893 
H    -6.1779616    2.2720939   -0.0316076 
O    -2.7529625    4.1454083    1.1916118 
H    -3.2323403   -4.5007779    2.7667219 
H     0.2295020   -4.2496870    5.3284357 
H    -1.5254287   -5.6275046    4.1165606 
C    -6.0304827    2.8996937    2.5557135 
H    -6.0650428    3.6788783    3.3253932 
H    -6.4077156    1.9701316    2.9970763 
H    -6.7189771    3.1963369    1.7578866 
H     6.3022364    2.3806764   -1.0452020 
H    -5.6591280   -3.3515316   -1.6101305 
H    -5.1958317    4.2823692   -0.7843662 
C    -1.3835058    0.0161470   -0.4770237 
C    -0.6196024    0.3624097   -1.5884770 
C     0.7907365    0.3720452   -1.5062962 
C     1.4227186    0.0519907   -0.3090191 
C     0.6603080   -0.3007561    0.8019208 
C    -0.7485251   -0.3025192    0.7223466 
C    -1.5046239   -0.5144033    1.9049876 
N    -2.0843420   -0.5978636    2.9032590 
C     1.2968311   -0.6093199    2.0341234 
N     1.8038087   -0.8513590    3.0456358 
C     1.5697091    0.6715378   -2.6564102 
N     2.1976783    0.8701956   -3.6074864 
C    -1.2451571    0.7247220   -2.8119120 
N    -1.7277652    1.0379347   -3.8153972 
H    -2.4661095    0.0058486   -0.5449405 
H     2.5035762    0.1003555   -0.2433955 
