216
Energy =
Zn   -5.0499833   -0.0800447   -1.6528432 
N    -6.3249745    0.9740618   -0.4575903 
C    -6.4265865    2.3398758   -0.3708730 
C    -5.6793565    3.2691000   -1.1141250 
C    -4.7217216    2.9415039   -2.0868911 
N    -4.3947525    1.6722603   -2.4934727 
C    -3.3495602    1.7991658   -3.3736838 
C    -2.6529856    0.7410335   -3.9665958 
C    -2.8956067   -0.6208673   -3.7539973 
N    -3.8143361   -1.1438631   -2.8822196 
C    -3.7110198   -2.5096521   -2.9749060 
C    -4.4439788   -3.4372897   -2.2203896 
C    -5.4051807   -3.1060855   -1.2514761 
N    -5.7983473   -1.8354755   -0.9120069 
C    -6.7264003   -1.9647677    0.0910131 
C    -7.3926564   -0.9100303    0.7329337 
C    -7.2059431    0.4532099    0.4582349 
C    -7.8873523    1.5249284    1.1377944 
C    -7.4145775    2.6892257    0.6183914 
H    -7.7111156    3.6945778    0.8810354 
H    -8.6303596    1.4037972    1.9131096 
C    -8.3641220   -1.2653779    1.8060630 
C    -9.7373955   -1.0924142    1.6097286 
C   -10.6408331   -1.4240991    2.6149316 
C   -10.1832677   -1.9288788    3.8292126 
C    -8.8167364   -2.1020107    4.0330567 
C    -7.9124529   -1.7740058    3.0277772 
H    -6.8455471   -1.9060609    3.1891720 
H    -8.4510370   -2.4913080    4.9792423 
H   -10.8890361   -2.1865061    4.6139201 
H   -11.7058874   -1.2897966    2.4470113 
H   -10.0947753   -0.7011566    0.6606673 
C    -6.9269383   -3.3597721    0.3893605 
C    -6.1042953   -4.0642535   -0.4332259 
H    -5.9787817   -5.1367420   -0.4779106 
H    -7.6080287   -3.7506854    1.1318513 
C    -4.1684114   -4.8824057   -2.4516722 
C    -2.9276615   -5.4339742   -2.1156803 
C    -2.6724432   -6.7840288   -2.3341300 
C    -3.6513269   -7.5998370   -2.8954836 
C    -4.8883849   -7.0583137   -3.2354702 
C    -5.1469678   -5.7095249   -3.0127728 
H    -6.1110462   -5.2861030   -3.2828002 
H    -5.6552906   -7.6871079   -3.6793839 
H    -3.4507509   -8.6534690   -3.0685479 
H    -1.7054681   -7.1989575   -2.0631431 
H    -2.1624799   -4.7986742   -1.6771702 
C    -2.7163846   -2.8540510   -3.9605593 
C    -2.2020630   -1.6862351   -4.4298319 
H    -1.4354777   -1.5589341   -5.1813972 
H    -2.4494693   -3.8580476   -4.2578799 
C    -1.4548762    1.0847116   -4.7871722 
N    -0.3822346    1.8678265   -6.7579555 
C    -1.5134843    1.5789927   -6.0987461 
C    -2.8066820    1.8078746   -6.8181718 
H    -3.5783244    1.1062802   -6.4900584 
H    -2.6548709    1.7107473   -7.8961587 
H    -3.1806157    2.8209811   -6.6231650 
C    -3.0156301    3.1903791   -3.5368830 
C    -3.8637673    3.8975337   -2.7434296 
H    -3.8871231    4.9675112   -2.5931407 
H    -2.2179657    3.5771571   -4.1566557 
C    -5.8950444    4.7141596   -0.8282885 
C    -5.5609217    5.2519367    0.4191460 
C    -5.7491075    6.6058304    0.6784313 
C    -6.2798957    7.4400550   -0.3023626 
C    -6.6201775    6.9121945   -1.5450848 
C    -6.4262864    5.5597226   -1.8077325 
H    -6.6946926    5.1474633   -2.7769576 
H    -7.0413459    7.5545739   -2.3136892 
H    -6.4278981    8.4969359   -0.0989193 
H    -5.4776318    7.0100366    1.6498965 
H    -5.1485673    4.6029720    1.1871251 
Zn    4.7520395    0.6182357   -1.9104096 
N     5.9245143   -0.9637363   -1.3706558 
C     5.8820999   -2.2324637   -1.8933583 
C     4.9510557   -2.7061467   -2.8335530 
C     3.9529905   -1.9275519   -3.4398702 
N     3.7696687   -0.5806082   -3.2543327 
C     2.6621987   -0.2314813   -3.9841839 
C     2.1026083    1.0474023   -4.0523992 
C     2.5539668    2.1769714   -3.3617590 
N     3.6023145    2.2081196   -2.4781522 
C     3.6783220    3.4930090   -2.0024764 
C     4.5868738    3.9544610   -1.0379578 
C     5.5745209    3.1696427   -0.4194956 
N     5.8555859    1.8560277   -0.7029838 
C     6.8264831    1.4608698    0.1835891 
C     7.3766534    0.1721610    0.2776558 
C     6.9742149   -0.9351409   -0.4866880 
C     7.6258402   -2.2191997   -0.4679008 
C     6.9540901   -3.0188911   -1.3389002 
H     7.1804237   -4.0428305   -1.5995751 
H     8.5026735   -2.4691091    0.1122550 
C     8.4525352   -0.0429954    1.2822911 
C     9.6695557    0.6407662    1.1863336 
C    10.6682448    0.4435949    2.1344811 
C    10.4629680   -0.4337090    3.1961481 
C     9.2551788   -1.1189021    3.3000514 
C     8.2591628   -0.9296353    2.3481598 
H     7.3186620   -1.4675642    2.4329034 
H     9.0849907   -1.8020771    4.1276308 
H    11.2416153   -0.5840489    3.9387174 
H    11.6109748    0.9756502    2.0416010 
H     9.8325498    1.3223389    0.3554997 
C     7.1607495    2.5573129    1.0566204 
C     6.3900845    3.6131443    0.6822435 
H     6.3533297    4.5942399    1.1337727 
H     7.8706868    2.5164763    1.8701193 
C     4.4674346    5.3722665   -0.6010249 
C     3.3167312    5.8159408    0.0598537 
C     3.2063626    7.1380663    0.4774559 
C     4.2423213    8.0368029    0.2355695 
C     5.3907019    7.6045338   -0.4229806 
C     5.5048234    6.2807047   -0.8359171 
H     6.4000375    5.9448869   -1.3529783 
H     6.2011738    8.3011878   -0.6189746 
H     4.1554470    9.0702722    0.5593228 
H     2.3090245    7.4651980    0.9956973 
H     2.5097533    5.1133188    0.2506505 
C     2.6596243    4.3008872   -2.6265455 
C     1.9553661    3.4833885   -3.4542729 
H     1.1094051    3.7463388   -4.0748633 
H     2.5040662    5.3564157   -2.4557508 
C     0.8370210    1.2100721   -4.8288454 
N    -0.2810547    0.8937302   -4.1753876 
C     0.7948418    1.6988497   -6.1445632 
C     2.0390548    2.0501077   -6.8990270 
H     2.4836157    2.9721938   -6.5041596 
H     1.8058199    2.2022015   -7.9550821 
H     2.7956363    1.2646893   -6.8007079 
C     2.1328763   -1.3899433   -4.6545619 
C     2.9283291   -2.4402157   -4.3169072 
H     2.8194378   -3.4723472   -4.6182214 
H     1.2585586   -1.4019836   -5.2907381 
C     5.0164460   -4.1465314   -3.1986699 
C     4.7912881   -5.1345469   -2.2335102 
C     4.8459214   -6.4817819   -2.5754207 
C     5.1315272   -6.8614429   -3.8847119 
C     5.3610822   -5.8852776   -4.8507603 
C     5.3015248   -4.5374422   -4.5115906 
H     5.4878803   -3.7765230   -5.2651780 
H     5.5922696   -6.1732231   -5.8726991 
H     5.1758736   -7.9138010   -4.1510774 
H     4.6622766   -7.2369444   -1.8160628 
H     4.5639249   -4.8388391   -1.2120748 
C     0.7932977    1.1708726    5.7859467 
C    -0.5929838    1.4453277    5.7074967 
C    -1.1056264    2.5031287    4.8749903 
C    -2.4033616    2.1132771    4.3836581 
C    -2.7891983    2.4456973    3.0872459 
C    -1.8869143    3.1902619    2.2383857 
C    -2.0111625    2.6741779    0.8936516 
C    -2.9886951    1.6112519    0.9127935 
C    -2.7933193    0.4786634    0.1229170 
C    -3.0578122   -0.8339825    0.6641660 
C    -3.5190343   -0.9685792    1.9637263 
C    -3.7320253    0.2005231    2.7787417 
C    -3.3249369   -0.1415273    4.1189755 
C    -2.8866104   -1.5138690    4.1294507 
C    -1.8557488   -1.9549059    4.9936629 
C    -1.1672278   -0.9650899    5.8227047 
C     0.1824732   -1.2010047    6.1779735 
C     0.8530557   -2.4238281    5.8185894 
C     0.2011366   -3.3610425    5.0332644 
C     0.9162964   -4.0465950    3.9852216 
C     0.0045024   -4.1900233    2.8773290 
C    -1.2640688   -3.6174928    3.2493416 
C    -2.1020790   -2.9912530    2.2959960 
C    -1.6145710   -2.8474285    0.9238390 
C    -0.3258350   -3.3413709    0.6076482 
C     0.5667943   -2.6038460   -0.2347699 
C     0.1941546   -1.3521489   -0.7810783 
C    -1.1752350   -1.0094030   -0.6831682 
C     1.1810831   -0.2743818   -0.7954825 
C     0.7272917    1.0625018   -0.7169154 
C    -0.6763148    1.3816752   -0.7146735 
C     1.3994615    2.0302918    0.0953392 
C     0.4116483    2.9487503    0.5996252 
C     0.5306858    3.4467334    1.8875728 
C     1.6400636    3.0398268    2.7122207 
C     1.1633785    2.8994009    4.0544869 
C     2.6698821    2.2090023    2.2095847 
C     3.3839955    1.4466296    3.1646425 
C     2.9073220    1.3066458    4.5072318 
C     3.2850954   -0.0018773    4.9770848 
C     2.4209308   -0.7170128    5.7906682 
C     4.0120556   -0.6750698    3.9288678 
C     3.8428297   -2.0424282    3.7259220 
C     2.9403326   -2.7878243    4.5743012 
C     3.7200709   -2.5593701    2.3811994 
C     3.7689749   -1.6861622    1.2983366 
C     2.8491855   -1.8394487    0.1991072 
C     3.9350927   -0.2717133    1.5164543 
C     3.1435343    0.4399238    0.5461274 
C     2.7420943   -3.6234600    2.3988108 
C     1.8587382   -3.7700112    1.3322613 
C     4.0563858    0.2253044    2.8035885 
C     2.5418384    1.6849542    0.8521798 
C     2.4686449   -0.5300399   -0.2663746 
C     1.9118436   -2.8596778    0.2147440 
C     0.4663365   -4.0541434    1.5775725 
C     2.2600660   -3.7643573    3.7544212 
C     2.2466782   -2.1340803    5.5892073 
C    -1.1425766   -3.1060480    4.5815335 
C    -3.0078805   -2.0251362    2.7974411 
C    -2.0677932   -1.7480185    0.1565996 
C    -1.6105556    0.3615519   -0.6963320 
C    -0.8801282    2.5604093    0.0897425 
C    -0.6387186    3.5731118    2.7214716 
C    -3.4695062    1.4689563    2.2672719 
C    -2.6732830    0.7959733    4.9048388 
C    -0.2412436    3.2184439    4.0614647 
C    -1.5612973    0.3910588    5.7260012 
C     1.7059656    1.9262505    4.9277377 
C     1.1507908   -0.1466078    6.1600974 
