12
Energy =
H    -2.1489897   -0.0000000   -1.3180065 
C    -1.2047987    0.0000000   -0.7808190 
C     0.0000000   -0.0000000   -1.4787187 
H    -0.0000000    0.0000000   -2.5646251 
C     1.2047986    0.0000000   -0.7808188 
H     2.1489896    0.0000000   -1.3180061 
C     1.2148285   -0.0000001    0.6133579 
H     2.1546706   -0.0000000    1.1552176 
C    -0.0000001    0.0000000    1.2898487 
C    -1.2148287   -0.0000001    0.6133577 
H    -2.1546711   -0.0000000    1.1552171 
I     0.0000009    0.0000001    3.4139951 
