16
Energy =
H     1.3180651   -2.1522639   -0.0030386 
C     1.8647491   -1.2153268   -0.0033101 
C     3.2480278   -1.2175465   -0.0039072 
C     3.9217563    0.0000054   -0.0036640 
C     3.2482655    1.2176867   -0.0031649 
C     1.8649822    1.2157412   -0.0025442 
C     1.1548770    0.0002792   -0.0025321 
C    -0.2594617    0.0003353   -0.0017165 
C    -1.4729731   -0.0001419   -0.0003709 
I    -3.4599307   -0.0000216    0.0014793 
H     1.3184878    2.1527852   -0.0016573 
H     3.8050633    2.1471771   -0.0021185 
N     5.3907810   -0.0001417    0.0013031 
O     5.9635428    1.0852696    0.0056608 
O     5.9633196   -1.0856645    0.0068449 
H     3.8046367   -2.1471518   -0.0033352 
