21
Energy =
C     0.7811074    1.1378485   -0.7928075 
N     1.2802241    0.0006265   -0.0012848 
C     0.7825784   -1.2541875   -0.5897294 
H     1.1906244   -2.0859973   -0.0018945 
H     1.1965370   -1.3389376   -1.6023246 
C    -0.7741276   -1.3023649   -0.6182940 
H    -1.1503919   -2.1642851   -0.0529868 
H    -1.1443199   -1.4034575   -1.6463205 
C    -1.3029687   -0.0007490    0.0012367 
C    -0.7728979    0.1145245    1.4377836 
H    -1.1418815   -0.7256580    2.0394101 
H    -1.1496285    1.0348122    1.9016334 
C     0.7836114    0.1175210    1.3801833 
H     1.1903090    1.0431985    1.8063158 
H     1.1997191   -0.7164248    1.9591890 
C    -0.7757371    1.1867193   -0.8173643 
H    -1.1534849    1.1281732   -1.8458390 
H    -1.1448636    2.1272063   -0.3893893 
H    -2.3993653   -0.0013649    0.0025299 
H     1.1957748    2.0568769   -0.3601611 
H     1.1866214    1.0447414   -1.8080484 
