27
Energy =
C     2.3326913   -1.3012538   -0.1892069 
N     3.2919744   -0.3628941   -0.0374383 
C     2.9776079    0.9345902    0.1506875 
C     1.6578526    1.3320108    0.1925126 
C     0.6516325    0.3834326    0.0387831 
C     1.0012817   -0.9531935   -0.1547755 
H     0.2528376   -1.7256520   -0.2811766 
C    -0.7761807    0.8428016    0.0846910 
O    -1.0877102    2.0041880    0.2419353 
O    -1.6214217   -0.1735261   -0.0642597 
C    -3.0486224    0.1517921   -0.0345044 
C    -3.8092614   -1.1527815   -0.0909419 
C    -5.3146001   -0.8991420   -0.0691840 
H    -5.8641127   -1.8445131   -0.1055014 
H    -5.6284703   -0.2955911   -0.9282398 
H    -5.6150850   -0.3713573    0.8429713 
H    -3.5303167   -1.6956340   -1.0024218 
H    -3.5185787   -1.7747674    0.7646446 
H    -3.2678643    0.7948942   -0.8948380 
H    -3.2558717    0.7099537    0.8852413 
H     1.4193680    2.3784311    0.3448432 
H     3.8048909    1.6253156    0.2641071 
C     4.7081088   -0.7904438   -0.0736268 
H     4.8897323   -1.4709857    0.7615629 
H     5.3475585    0.0868766    0.0112157 
H     4.8946142   -1.3034478   -1.0195789 
H     2.6744211   -2.3198757   -0.3369812 
